1a0q_ligand
     RDKit          3D

 23 23  0  0  0  0  0  0  0  0999 V2000
   12.9033   20.4510   59.2579 C   0  0  2  0  0  0  0  0  0  0  0  0
   11.9521   19.6718   58.3912 C   0  0  0  0  0  0  0  0  0  0  0  0
   11.1854   18.6271   59.1315 C   0  0  0  0  0  0  0  0  0  0  0  0
   11.0722   17.4121   58.2179 C   0  0  0  0  0  0  0  0  0  0  0  0
   11.6326   17.6646   56.8537 C   0  0  0  0  0  0  0  0  0  0  0  0
   16.7499   22.1115   56.0956 C   0  0  0  0  0  0  0  0  0  0  0  0
   17.0909   22.5684   54.8492 C   0  0  0  0  0  0  0  0  0  0  0  0
   16.3071   22.3125   53.7536 C   0  0  0  0  0  0  0  0  0  0  0  0
   15.1442   21.5651   53.9616 C   0  0  0  0  0  0  0  0  0  0  0  0
   14.8111   21.1114   55.2157 C   0  0  0  0  0  0  0  0  0  0  0  0
   15.5957   21.3657   56.3214 C   0  0  0  0  0  0  0  0  0  0  0  0
   12.4812   20.7859   61.6964 C   0  0  0  0  0  0  0  0  0  0  0  0
   12.5185   21.3334   64.1110 C   0  0  0  0  0  0  0  0  0  0  0  0
   11.7703   21.4517   62.8188 C   0  0  0  0  0  0  0  0  0  0  0  0
   13.5352   22.4048   64.2563 C   0  0  0  0  0  0  0  0  0  0  0  0
   13.0223   22.2064   57.2326 O   0  0  0  0  0  0  0  0  0  0  0  0
   14.4463   22.9090   59.2701 O   0  0  0  0  0  0  0  0  0  0  0  0
   15.2475   20.9012   57.5834 O   0  0  0  0  0  0  0  0  0  0  0  0
   13.3104   19.8767   61.9469 O   0  0  0  0  0  0  0  0  0  0  0  0
   13.3586   23.5897   63.8680 O   0  0  0  0  0  0  0  0  0  0  0  0
   14.7439   22.0202   64.8682 O   0  0  0  0  0  0  0  0  0  0  0  0
   12.2595   21.1391   60.3373 N   0  0  0  0  0  0  0  0  0  0  0  0
   13.8972   21.6227   58.3363 P   0  0  1  0  0  5  0  0  0  0  0  0
  1 23  1  0
  1 22  1  0
  1  2  1  6
  2  3  1  0
  3  4  1  0
  4  5  1  0
 22 12  1  0
 12 19  2  0
 12 14  1  0
 14 13  1  0
 13 15  1  0
 15 20  2  0
 15 21  1  0
 23 16  2  0
 23 17  1  1
 23 18  1  0
 18 11  1  0
 11 10  1  0
 11  6  2  0
  6  7  1  0
  7  8  2  0
  8  9  1  0
  9 10  2  0
M  END
$$$$
