1a0q_ligand
     RDKit          3D

 23 23  0  0  0  0  0  0  0  0999 V2000
   13.1878   20.5811   59.2812 C   0  0  2  0  0  0  0  0  0  0  0  0
   12.1598   19.7949   58.5141 C   0  0  0  0  0  0  0  0  0  0  0  0
   11.5804   18.6548   59.2833 C   0  0  0  0  0  0  0  0  0  0  0  0
   10.8261   17.7742   58.2939 C   0  0  0  0  0  0  0  0  0  0  0  0
   11.7311   16.8506   57.5408 C   0  0  0  0  0  0  0  0  0  0  0  0
   16.8338   22.0362   55.8063 C   0  0  0  0  0  0  0  0  0  0  0  0
   17.1092   22.4767   54.5380 C   0  0  0  0  0  0  0  0  0  0  0  0
   16.2485   22.2434   53.4963 C   0  0  0  0  0  0  0  0  0  0  0  0
   15.0770   21.5365   53.7828 C   0  0  0  0  0  0  0  0  0  0  0  0
   14.8100   21.0990   55.0583 C   0  0  0  0  0  0  0  0  0  0  0  0
   15.6721   21.3308   56.1100 C   0  0  0  0  0  0  0  0  0  0  0  0
   13.0208   21.0970   61.7190 C   0  0  0  0  0  0  0  0  0  0  0  0
   11.1852   21.5021   63.3308 C   0  0  0  0  0  0  0  0  0  0  0  0
   12.5333   21.9370   62.8438 C   0  0  0  0  0  0  0  0  0  0  0  0
   11.2925   20.4959   64.4165 C   0  0  0  0  0  0  0  0  0  0  0  0
   13.2048   22.2860   57.2099 O   0  0  0  0  0  0  0  0  0  0  0  0
   14.8369   22.9619   59.0946 O   0  0  0  0  0  0  0  0  0  0  0  0
   15.3902   20.8831   57.3944 O   0  0  0  0  0  0  0  0  0  0  0  0
   13.8008   20.1422   61.9577 O   0  0  0  0  0  0  0  0  0  0  0  0
   10.3060   19.8683   64.8843 O   0  0  0  0  0  0  0  0  0  0  0  0
   12.5909   20.2703   64.9133 O   0  0  0  0  0  0  0  0  0  0  0  0
   12.6370   21.3316   60.3704 N   0  0  0  0  0  0  0  0  0  0  0  0
   14.1476   21.6842   58.2459 P   0  0  1  0  0  5  0  0  0  0  0  0
  1 23  1  0
  1 22  1  0
  1  2  1  6
  2  3  1  0
  3  4  1  0
  4  5  1  0
 22 12  1  0
 12 19  2  0
 12 14  1  0
 14 13  1  0
 13 15  1  0
 15 20  2  0
 15 21  1  0
 23 16  2  0
 23 17  1  1
 23 18  1  0
 18 11  1  0
 11 10  1  0
 11  6  2  0
  6  7  1  0
  7  8  2  0
  8  9  1  0
  9 10  2  0
M  END
$$$$
