1a0q_ligand
     RDKit          3D

 23 23  0  0  0  0  0  0  0  0999 V2000
   13.0574   20.5067   59.1543 C   0  0  2  0  0  0  0  0  0  0  0  0
   12.1321   19.7812   58.2159 C   0  0  0  0  0  0  0  0  0  0  0  0
   11.4703   18.5916   58.8273 C   0  0  0  0  0  0  0  0  0  0  0  0
   10.7974   17.8155   57.7011 C   0  0  0  0  0  0  0  0  0  0  0  0
   11.6876   16.7651   57.1152 C   0  0  0  0  0  0  0  0  0  0  0  0
   14.8466   21.2275   55.4558 C   0  0  0  0  0  0  0  0  0  0  0  0
   15.1143   21.4198   54.1255 C   0  0  0  0  0  0  0  0  0  0  0  0
   16.3027   21.9592   53.7048 C   0  0  0  0  0  0  0  0  0  0  0  0
   17.2309   22.3053   54.6912 C   0  0  0  0  0  0  0  0  0  0  0  0
   16.9528   22.1085   56.0230 C   0  0  0  0  0  0  0  0  0  0  0  0
   15.7590   21.5663   56.4519 C   0  0  0  0  0  0  0  0  0  0  0  0
   12.6896   20.5161   61.6244 C   0  0  0  0  0  0  0  0  0  0  0  0
   12.7260   20.6860   64.0944 C   0  0  0  0  0  0  0  0  0  0  0  0
   11.9746   20.9947   62.8360 C   0  0  0  0  0  0  0  0  0  0  0  0
   13.6891   21.7622   64.4364 C   0  0  0  0  0  0  0  0  0  0  0  0
   13.1429   22.2944   57.1557 O   0  0  0  0  0  0  0  0  0  0  0  0
   14.1509   23.1871   59.3602 O   0  0  0  0  0  0  0  0  0  0  0  0
   15.4906   21.3727   57.8010 O   0  0  0  0  0  0  0  0  0  0  0  0
   13.5818   19.6402   61.7428 O   0  0  0  0  0  0  0  0  0  0  0  0
   13.7200   22.8793   63.8558 O   0  0  0  0  0  0  0  0  0  0  0  0
   14.5944   21.4643   65.4732 O   0  0  0  0  0  0  0  0  0  0  0  0
   12.4028   21.0134   60.3238 N   0  0  0  0  0  0  0  0  0  0  0  0
   13.9520   21.8447   58.3671 P   0  0  1  0  0  5  0  0  0  0  0  0
  1 23  1  0
  1 22  1  0
  1  2  1  6
  2  3  1  0
  3  4  1  0
  4  5  1  0
 22 12  1  0
 12 19  2  0
 12 14  1  0
 14 13  1  0
 13 15  1  0
 15 20  2  0
 15 21  1  0
 23 16  2  0
 23 17  1  1
 23 18  1  0
 18 11  1  0
 11 10  1  0
 11  6  2  0
  6  7  1  0
  7  8  2  0
  8  9  1  0
  9 10  2  0
M  END
$$$$
