1a0q_ligand
     RDKit          3D

 23 23  0  0  0  0  0  0  0  0999 V2000
   13.1262   20.6542   59.3373 C   0  0  2  0  0  0  0  0  0  0  0  0
   12.1075   19.9002   58.5268 C   0  0  0  0  0  0  0  0  0  0  0  0
   11.3819   18.8514   59.3019 C   0  0  0  0  0  0  0  0  0  0  0  0
   10.7847   17.8735   58.2966 C   0  0  0  0  0  0  0  0  0  0  0  0
   11.8218   17.0135   57.6457 C   0  0  0  0  0  0  0  0  0  0  0  0
   16.8062   22.0772   55.8451 C   0  0  0  0  0  0  0  0  0  0  0  0
   17.0152   22.3500   54.5183 C   0  0  0  0  0  0  0  0  0  0  0  0
   16.0993   21.9955   53.5614 C   0  0  0  0  0  0  0  0  0  0  0  0
   14.9419   21.3433   53.9966 C   0  0  0  0  0  0  0  0  0  0  0  0
   14.7417   21.0743   55.3298 C   0  0  0  0  0  0  0  0  0  0  0  0
   15.6597   21.4286   56.2967 C   0  0  0  0  0  0  0  0  0  0  0  0
   12.9395   20.9926   61.8046 C   0  0  0  0  0  0  0  0  0  0  0  0
   11.2391   21.3164   63.5752 C   0  0  0  0  0  0  0  0  0  0  0  0
   12.5215   21.8062   62.9758 C   0  0  0  0  0  0  0  0  0  0  0  0
   11.4088   19.9949   64.2291 C   0  0  0  0  0  0  0  0  0  0  0  0
   13.1599   22.3343   57.2460 O   0  0  0  0  0  0  0  0  0  0  0  0
   14.5505   23.1814   59.2514 O   0  0  0  0  0  0  0  0  0  0  0  0
   15.4450   21.1507   57.6407 O   0  0  0  0  0  0  0  0  0  0  0  0
   13.6467   19.9709   61.9866 O   0  0  0  0  0  0  0  0  0  0  0  0
   10.6459   19.0139   64.0249 O   0  0  0  0  0  0  0  0  0  0  0  0
   12.4975   19.8880   65.1160 O   0  0  0  0  0  0  0  0  0  0  0  0
   12.5686   21.3261   60.4734 N   0  0  0  0  0  0  0  0  0  0  0  0
   14.0625   21.8356   58.3690 P   0  0  1  0  0  5  0  0  0  0  0  0
  1 23  1  0
  1 22  1  0
  1  2  1  6
  2  3  1  0
  3  4  1  0
  4  5  1  0
 22 12  1  0
 12 19  2  0
 12 14  1  0
 14 13  1  0
 13 15  1  0
 15 20  2  0
 15 21  1  0
 23 16  2  0
 23 17  1  1
 23 18  1  0
 18 11  1  0
 11 10  1  0
 11  6  2  0
  6  7  1  0
  7  8  2  0
  8  9  1  0
  9 10  2  0
M  END
$$$$
