1a0q_ligand
     RDKit          3D

 23 23  0  0  0  0  0  0  0  0999 V2000
   13.0769   20.3889   59.3757 C   0  0  2  0  0  0  0  0  0  0  0  0
   12.2168   19.4252   58.6047 C   0  0  0  0  0  0  0  0  0  0  0  0
   11.3502   18.5712   59.4690 C   0  0  0  0  0  0  0  0  0  0  0  0
   11.1211   17.2584   58.7289 C   0  0  0  0  0  0  0  0  0  0  0  0
   11.5445   17.3255   57.2953 C   0  0  0  0  0  0  0  0  0  0  0  0
   16.6820   21.9580   55.9111 C   0  0  0  0  0  0  0  0  0  0  0  0
   16.9515   22.3834   54.6364 C   0  0  0  0  0  0  0  0  0  0  0  0
   16.1231   22.0746   53.5883 C   0  0  0  0  0  0  0  0  0  0  0  0
   14.9907   21.3066   53.8749 C   0  0  0  0  0  0  0  0  0  0  0  0
   14.7293   20.8849   55.1569 C   0  0  0  0  0  0  0  0  0  0  0  0
   15.5591   21.1926   56.2151 C   0  0  0  0  0  0  0  0  0  0  0  0
   12.5946   21.0224   61.7428 C   0  0  0  0  0  0  0  0  0  0  0  0
   12.0368   21.3127   64.1377 C   0  0  0  0  0  0  0  0  0  0  0  0
   11.9073   21.8684   62.7529 C   0  0  0  0  0  0  0  0  0  0  0  0
   13.2665   21.7994   64.8114 C   0  0  0  0  0  0  0  0  0  0  0  0
   13.0299   22.0411   57.2626 O   0  0  0  0  0  0  0  0  0  0  0  0
   14.6015   22.8478   59.1474 O   0  0  0  0  0  0  0  0  0  0  0  0
   15.2833   20.7599   57.5060 O   0  0  0  0  0  0  0  0  0  0  0  0
   13.4232   20.1596   62.1247 O   0  0  0  0  0  0  0  0  0  0  0  0
   13.8574   21.1653   65.7249 O   0  0  0  0  0  0  0  0  0  0  0  0
   13.7552   23.0427   64.3656 O   0  0  0  0  0  0  0  0  0  0  0  0
   12.3507   21.1506   60.3481 N   0  0  0  0  0  0  0  0  0  0  0  0
   13.9903   21.5153   58.3236 P   0  0  1  0  0  5  0  0  0  0  0  0
  1 23  1  0
  1 22  1  0
  1  2  1  6
  2  3  1  0
  3  4  1  0
  4  5  1  0
 22 12  1  0
 12 19  2  0
 12 14  1  0
 14 13  1  0
 13 15  1  0
 15 20  2  0
 15 21  1  0
 23 16  2  0
 23 17  1  1
 23 18  1  0
 18 11  1  0
 11 10  1  0
 11  6  2  0
  6  7  1  0
  7  8  2  0
  8  9  1  0
  9 10  2  0
M  END
$$$$
