1a0q_ligand
     RDKit          3D

 23 23  0  0  0  0  0  0  0  0999 V2000
   13.0944   20.4555   59.2467 C   0  0  2  0  0  0  0  0  0  0  0  0
   12.2451   19.5828   58.3634 C   0  0  0  0  0  0  0  0  0  0  0  0
   11.3901   18.6191   59.1166 C   0  0  0  0  0  0  0  0  0  0  0  0
   10.7706   17.6680   58.0992 C   0  0  0  0  0  0  0  0  0  0  0  0
   11.7991   16.9005   57.3296 C   0  0  0  0  0  0  0  0  0  0  0  0
   16.8524   21.9991   55.9138 C   0  0  0  0  0  0  0  0  0  0  0  0
   17.1038   22.2637   54.5927 C   0  0  0  0  0  0  0  0  0  0  0  0
   16.2650   21.8225   53.6018 C   0  0  0  0  0  0  0  0  0  0  0  0
   15.1413   21.0903   53.9961 C   0  0  0  0  0  0  0  0  0  0  0  0
   14.8981   20.8302   55.3238 C   0  0  0  0  0  0  0  0  0  0  0  0
   15.7384   21.2716   56.3249 C   0  0  0  0  0  0  0  0  0  0  0  0
   12.5508   20.8767   61.6476 C   0  0  0  0  0  0  0  0  0  0  0  0
   12.3463   21.3252   64.0742 C   0  0  0  0  0  0  0  0  0  0  0  0
   11.7830   21.5777   62.7094 C   0  0  0  0  0  0  0  0  0  0  0  0
   13.4583   22.2561   64.3896 C   0  0  0  0  0  0  0  0  0  0  0  0
   13.1986   22.1548   57.1734 O   0  0  0  0  0  0  0  0  0  0  0  0
   14.4826   23.0041   59.2478 O   0  0  0  0  0  0  0  0  0  0  0  0
   15.4808   21.0016   57.6630 O   0  0  0  0  0  0  0  0  0  0  0  0
   13.4118   20.0226   61.9735 O   0  0  0  0  0  0  0  0  0  0  0  0
   13.5183   23.4393   63.9625 O   0  0  0  0  0  0  0  0  0  0  0  0
   14.4741   21.7361   65.2150 O   0  0  0  0  0  0  0  0  0  0  0  0
   12.3492   21.1354   60.2643 N   0  0  0  0  0  0  0  0  0  0  0  0
   14.0562   21.6594   58.3326 P   0  0  1  0  0  5  0  0  0  0  0  0
  1 23  1  0
  1 22  1  0
  1  2  1  6
  2  3  1  0
  3  4  1  0
  4  5  1  0
 22 12  1  0
 12 19  2  0
 12 14  1  0
 14 13  1  0
 13 15  1  0
 15 20  2  0
 15 21  1  0
 23 16  2  0
 23 17  1  1
 23 18  1  0
 18 11  1  0
 11 10  1  0
 11  6  2  0
  6  7  1  0
  7  8  2  0
  8  9  1  0
  9 10  2  0
M  END
$$$$
