1a0q_ligand
     RDKit          3D

 23 23  0  0  0  0  0  0  0  0999 V2000
   13.2084   20.5523   59.1635 C   0  0  2  0  0  0  0  0  0  0  0  0
   12.2533   19.7063   58.3667 C   0  0  0  0  0  0  0  0  0  0  0  0
   11.6340   18.5991   59.1528 C   0  0  0  0  0  0  0  0  0  0  0  0
   10.8557   17.7261   58.1752 C   0  0  0  0  0  0  0  0  0  0  0  0
   11.7495   16.8890   57.3152 C   0  0  0  0  0  0  0  0  0  0  0  0
   14.8684   21.1599   54.9578 C   0  0  0  0  0  0  0  0  0  0  0  0
   15.1568   21.6141   53.6973 C   0  0  0  0  0  0  0  0  0  0  0  0
   16.3103   22.3064   53.4320 C   0  0  0  0  0  0  0  0  0  0  0  0
   17.1808   22.5298   54.5028 C   0  0  0  0  0  0  0  0  0  0  0  0
   16.8823   22.0702   55.7635 C   0  0  0  0  0  0  0  0  0  0  0  0
   15.7235   21.3732   56.0361 C   0  0  0  0  0  0  0  0  0  0  0  0
   12.9164   21.1063   61.5811 C   0  0  0  0  0  0  0  0  0  0  0  0
   11.3136   21.3250   63.4558 C   0  0  0  0  0  0  0  0  0  0  0  0
   12.3963   21.9864   62.6597 C   0  0  0  0  0  0  0  0  0  0  0  0
   11.8659   20.3503   64.4293 C   0  0  0  0  0  0  0  0  0  0  0  0
   13.2224   22.2716   57.1041 O   0  0  0  0  0  0  0  0  0  0  0  0
   14.8092   22.9688   59.0195 O   0  0  0  0  0  0  0  0  0  0  0  0
   15.4340   20.9141   57.3148 O   0  0  0  0  0  0  0  0  0  0  0  0
   13.6861   20.1594   61.8777 O   0  0  0  0  0  0  0  0  0  0  0  0
   12.9577   20.5139   65.0353 O   0  0  0  0  0  0  0  0  0  0  0  0
   11.0858   19.1986   64.6492 O   0  0  0  0  0  0  0  0  0  0  0  0
   12.5753   21.2935   60.2137 N   0  0  0  0  0  0  0  0  0  0  0  0
   14.1611   21.6828   58.1513 P   0  0  1  0  0  5  0  0  0  0  0  0
  1 23  1  0
  1 22  1  0
  1  2  1  6
  2  3  1  0
  3  4  1  0
  4  5  1  0
 22 12  1  0
 12 19  2  0
 12 14  1  0
 14 13  1  0
 13 15  1  0
 15 20  2  0
 15 21  1  0
 23 16  2  0
 23 17  1  1
 23 18  1  0
 18 11  1  0
 11 10  1  0
 11  6  2  0
  6  7  1  0
  7  8  2  0
  8  9  1  0
  9 10  2  0
M  END
$$$$
