1a0q_ligand
     RDKit          3D

 23 23  0  0  0  0  0  0  0  0999 V2000
   13.2453   20.5776   59.2607 C   0  0  2  0  0  0  0  0  0  0  0  0
   12.3389   19.7019   58.4394 C   0  0  0  0  0  0  0  0  0  0  0  0
   11.5484   18.7298   59.2502 C   0  0  0  0  0  0  0  0  0  0  0  0
   10.8718   17.7700   58.2784 C   0  0  0  0  0  0  0  0  0  0  0  0
   11.8429   17.1168   57.3461 C   0  0  0  0  0  0  0  0  0  0  0  0
   16.8938   22.0497   55.7457 C   0  0  0  0  0  0  0  0  0  0  0  0
   17.0986   22.3626   54.4271 C   0  0  0  0  0  0  0  0  0  0  0  0
   16.1692   22.0579   53.4661 C   0  0  0  0  0  0  0  0  0  0  0  0
   15.0025   21.4137   53.8883 C   0  0  0  0  0  0  0  0  0  0  0  0
   14.8067   21.1042   55.2133 C   0  0  0  0  0  0  0  0  0  0  0  0
   15.7381   21.4084   56.1843 C   0  0  0  0  0  0  0  0  0  0  0  0
   12.8520   21.0267   61.6857 C   0  0  0  0  0  0  0  0  0  0  0  0
   11.2374   21.1100   63.5612 C   0  0  0  0  0  0  0  0  0  0  0  0
   12.2770   21.8526   62.7791 C   0  0  0  0  0  0  0  0  0  0  0  0
   11.8495   20.1960   64.5575 C   0  0  0  0  0  0  0  0  0  0  0  0
   13.2299   22.2643   57.1745 O   0  0  0  0  0  0  0  0  0  0  0  0
   14.6563   23.1115   59.1546 O   0  0  0  0  0  0  0  0  0  0  0  0
   15.5276   21.0899   57.5199 O   0  0  0  0  0  0  0  0  0  0  0  0
   13.6189   20.0746   61.9725 O   0  0  0  0  0  0  0  0  0  0  0  0
   12.8404   20.5057   65.2702 O   0  0  0  0  0  0  0  0  0  0  0  0
   11.2497   18.9268   64.6706 O   0  0  0  0  0  0  0  0  0  0  0  0
   12.5673   21.2722   60.3147 N   0  0  0  0  0  0  0  0  0  0  0  0
   14.1569   21.7662   58.2778 P   0  0  1  0  0  5  0  0  0  0  0  0
  1 23  1  0
  1 22  1  0
  1  2  1  6
  2  3  1  0
  3  4  1  0
  4  5  1  0
 22 12  1  0
 12 19  2  0
 12 14  1  0
 14 13  1  0
 13 15  1  0
 15 20  2  0
 15 21  1  0
 23 16  2  0
 23 17  1  1
 23 18  1  0
 18 11  1  0
 11 10  1  0
 11  6  2  0
  6  7  1  0
  7  8  2  0
  8  9  1  0
  9 10  2  0
M  END
$$$$
