1a0q_ligand
     RDKit          3D

 23 23  0  0  0  0  0  0  0  0999 V2000
   12.9517   20.3495   59.1764 C   0  0  2  0  0  0  0  0  0  0  0  0
   12.0045   19.5967   58.2825 C   0  0  0  0  0  0  0  0  0  0  0  0
   11.3753   18.4126   58.9375 C   0  0  0  0  0  0  0  0  0  0  0  0
   10.7209   17.5797   57.8414 C   0  0  0  0  0  0  0  0  0  0  0  0
   11.7181   16.8203   57.0240 C   0  0  0  0  0  0  0  0  0  0  0  0
   16.8725   22.0274   56.0419 C   0  0  0  0  0  0  0  0  0  0  0  0
   17.1673   22.3231   54.7365 C   0  0  0  0  0  0  0  0  0  0  0  0
   16.2751   22.0712   53.7262 C   0  0  0  0  0  0  0  0  0  0  0  0
   15.0507   21.4993   54.0841 C   0  0  0  0  0  0  0  0  0  0  0  0
   14.7647   21.2065   55.3964 C   0  0  0  0  0  0  0  0  0  0  0  0
   15.6583   21.4578   56.4168 C   0  0  0  0  0  0  0  0  0  0  0  0
   12.5927   20.4050   61.6472 C   0  0  0  0  0  0  0  0  0  0  0  0
   12.9085   21.1140   63.9986 C   0  0  0  0  0  0  0  0  0  0  0  0
   11.9454   20.9678   62.8607 C   0  0  0  0  0  0  0  0  0  0  0  0
   13.7241   22.3475   63.8720 C   0  0  0  0  0  0  0  0  0  0  0  0
   12.9992   22.0725   57.1206 O   0  0  0  0  0  0  0  0  0  0  0  0
   14.0646   23.0282   59.2710 O   0  0  0  0  0  0  0  0  0  0  0  0
   15.3566   21.1570   57.7390 O   0  0  0  0  0  0  0  0  0  0  0  0
   13.4092   19.4586   61.7687 O   0  0  0  0  0  0  0  0  0  0  0  0
   13.3012   23.4110   63.3468 O   0  0  0  0  0  0  0  0  0  0  0  0
   15.0338   22.2683   64.3836 O   0  0  0  0  0  0  0  0  0  0  0  0
   12.3233   20.8982   60.3414 N   0  0  0  0  0  0  0  0  0  0  0  0
   13.8346   21.6563   58.3261 P   0  0  1  0  0  5  0  0  0  0  0  0
  1 23  1  0
  1 22  1  0
  1  2  1  6
  2  3  1  0
  3  4  1  0
  4  5  1  0
 22 12  1  0
 12 19  2  0
 12 14  1  0
 14 13  1  0
 13 15  1  0
 15 20  2  0
 15 21  1  0
 23 16  2  0
 23 17  1  1
 23 18  1  0
 18 11  1  0
 11 10  1  0
 11  6  2  0
  6  7  1  0
  7  8  2  0
  8  9  1  0
  9 10  2  0
M  END
$$$$
