1a0q_ligand
     RDKit          3D

 23 23  0  0  0  0  0  0  0  0999 V2000
   13.1519   20.5790   59.2699 C   0  0  2  0  0  0  0  0  0  0  0  0
   12.2596   19.7307   58.4055 C   0  0  0  0  0  0  0  0  0  0  0  0
   11.5076   18.6874   59.1625 C   0  0  0  0  0  0  0  0  0  0  0  0
   10.8163   17.7923   58.1404 C   0  0  0  0  0  0  0  0  0  0  0  0
   11.7692   16.8711   57.4457 C   0  0  0  0  0  0  0  0  0  0  0  0
   16.8214   22.0848   55.7988 C   0  0  0  0  0  0  0  0  0  0  0  0
   17.0113   22.3354   54.4648 C   0  0  0  0  0  0  0  0  0  0  0  0
   16.0779   21.9724   53.5281 C   0  0  0  0  0  0  0  0  0  0  0  0
   14.9232   21.3353   53.9916 C   0  0  0  0  0  0  0  0  0  0  0  0
   14.7423   21.0885   55.3318 C   0  0  0  0  0  0  0  0  0  0  0  0
   15.6778   21.4514   56.2785 C   0  0  0  0  0  0  0  0  0  0  0  0
   12.7609   20.9528   61.7080 C   0  0  0  0  0  0  0  0  0  0  0  0
   11.1438   20.9409   63.5831 C   0  0  0  0  0  0  0  0  0  0  0  0
   12.1666   21.7309   62.8259 C   0  0  0  0  0  0  0  0  0  0  0  0
   11.7743   19.9065   64.4406 C   0  0  0  0  0  0  0  0  0  0  0  0
   13.1629   22.3028   57.2142 O   0  0  0  0  0  0  0  0  0  0  0  0
   14.4826   23.1582   59.2634 O   0  0  0  0  0  0  0  0  0  0  0  0
   15.4825   21.1961   57.6299 O   0  0  0  0  0  0  0  0  0  0  0  0
   13.5600   20.0190   61.9654 O   0  0  0  0  0  0  0  0  0  0  0  0
   12.8805   20.0632   65.0216 O   0  0  0  0  0  0  0  0  0  0  0  0
   11.0532   18.7045   64.5771 O   0  0  0  0  0  0  0  0  0  0  0  0
   12.4594   21.2244   60.3455 N   0  0  0  0  0  0  0  0  0  0  0  0
   14.0619   21.8142   58.3444 P   0  0  1  0  0  5  0  0  0  0  0  0
  1 23  1  0
  1 22  1  0
  1  2  1  6
  2  3  1  0
  3  4  1  0
  4  5  1  0
 22 12  1  0
 12 19  2  0
 12 14  1  0
 14 13  1  0
 13 15  1  0
 15 20  2  0
 15 21  1  0
 23 16  2  0
 23 17  1  1
 23 18  1  0
 18 11  1  0
 11 10  1  0
 11  6  2  0
  6  7  1  0
  7  8  2  0
  8  9  1  0
  9 10  2  0
M  END
$$$$
