1a0q_ligand
     RDKit          3D

 23 23  0  0  0  0  0  0  0  0999 V2000
   13.1132   20.5876   59.2952 C   0  0  2  0  0  0  0  0  0  0  0  0
   12.1881   19.7426   58.4626 C   0  0  0  0  0  0  0  0  0  0  0  0
   11.5250   18.6467   59.2285 C   0  0  0  0  0  0  0  0  0  0  0  0
   10.8108   17.7539   58.2204 C   0  0  0  0  0  0  0  0  0  0  0  0
   11.7601   17.0488   57.3034 C   0  0  0  0  0  0  0  0  0  0  0  0
   16.7948   22.0716   55.8394 C   0  0  0  0  0  0  0  0  0  0  0  0
   17.0114   22.2994   54.5054 C   0  0  0  0  0  0  0  0  0  0  0  0
   16.1344   21.8523   53.5508 C   0  0  0  0  0  0  0  0  0  0  0  0
   15.0086   21.1534   53.9962 C   0  0  0  0  0  0  0  0  0  0  0  0
   14.8003   20.9301   55.3365 C   0  0  0  0  0  0  0  0  0  0  0  0
   15.6792   21.3775   56.3011 C   0  0  0  0  0  0  0  0  0  0  0  0
   12.8070   21.0450   61.7311 C   0  0  0  0  0  0  0  0  0  0  0  0
   11.3354   21.1462   63.7200 C   0  0  0  0  0  0  0  0  0  0  0  0
   12.2879   21.8918   62.8365 C   0  0  0  0  0  0  0  0  0  0  0  0
   12.0467   20.2151   64.6310 C   0  0  0  0  0  0  0  0  0  0  0  0
   13.1398   22.2325   57.1760 O   0  0  0  0  0  0  0  0  0  0  0  0
   14.4417   23.1662   59.2023 O   0  0  0  0  0  0  0  0  0  0  0  0
   15.4568   21.1450   57.6524 O   0  0  0  0  0  0  0  0  0  0  0  0
   13.5870   20.0973   61.9968 O   0  0  0  0  0  0  0  0  0  0  0  0
   13.1283   20.4983   65.2104 O   0  0  0  0  0  0  0  0  0  0  0  0
   11.4344   18.9613   64.8218 O   0  0  0  0  0  0  0  0  0  0  0  0
   12.4540   21.2654   60.3718 N   0  0  0  0  0  0  0  0  0  0  0  0
   14.0298   21.7880   58.3313 P   0  0  1  0  0  5  0  0  0  0  0  0
  1 23  1  0
  1 22  1  0
  1  2  1  6
  2  3  1  0
  3  4  1  0
  4  5  1  0
 22 12  1  0
 12 19  2  0
 12 14  1  0
 14 13  1  0
 13 15  1  0
 15 20  2  0
 15 21  1  0
 23 16  2  0
 23 17  1  1
 23 18  1  0
 18 11  1  0
 11 10  1  0
 11  6  2  0
  6  7  1  0
  7  8  2  0
  8  9  1  0
  9 10  2  0
M  END
$$$$
