1a0q_ligand
     RDKit          3D

 23 23  0  0  0  0  0  0  0  0999 V2000
   13.0721   20.6630   59.1696 C   0  0  2  0  0  0  0  0  0  0  0  0
   12.1594   19.8484   58.2942 C   0  0  0  0  0  0  0  0  0  0  0  0
   11.4595   18.7471   59.0185 C   0  0  0  0  0  0  0  0  0  0  0  0
   10.7004   17.9292   57.9801 C   0  0  0  0  0  0  0  0  0  0  0  0
   11.5943   17.0137   57.2043 C   0  0  0  0  0  0  0  0  0  0  0  0
   14.8958   21.0438   55.2584 C   0  0  0  0  0  0  0  0  0  0  0  0
   15.1565   21.2895   53.9355 C   0  0  0  0  0  0  0  0  0  0  0  0
   16.2600   22.0029   53.5436 C   0  0  0  0  0  0  0  0  0  0  0  0
   17.1090   22.4696   54.5514 C   0  0  0  0  0  0  0  0  0  0  0  0
   16.8386   22.2178   55.8755 C   0  0  0  0  0  0  0  0  0  0  0  0
   15.7301   21.5008   56.2755 C   0  0  0  0  0  0  0  0  0  0  0  0
   12.6649   21.0033   61.6100 C   0  0  0  0  0  0  0  0  0  0  0  0
   11.2409   20.8106   63.6264 C   0  0  0  0  0  0  0  0  0  0  0  0
   12.0227   21.7280   62.7373 C   0  0  0  0  0  0  0  0  0  0  0  0
   12.1304   19.9826   64.4785 C   0  0  0  0  0  0  0  0  0  0  0  0
   13.1669   22.3466   57.0830 O   0  0  0  0  0  0  0  0  0  0  0  0
   14.3981   23.2446   59.1688 O   0  0  0  0  0  0  0  0  0  0  0  0
   15.4685   21.2534   57.6172 O   0  0  0  0  0  0  0  0  0  0  0  0
   13.4781   20.0788   61.8570 O   0  0  0  0  0  0  0  0  0  0  0  0
   11.9332   18.7605   64.7098 O   0  0  0  0  0  0  0  0  0  0  0  0
   13.2396   20.6505   65.0326 O   0  0  0  0  0  0  0  0  0  0  0  0
   12.3943   21.3163   60.2499 N   0  0  0  0  0  0  0  0  0  0  0  0
   14.0183   21.8821   58.2593 P   0  0  1  0  0  5  0  0  0  0  0  0
  1 23  1  0
  1 22  1  0
  1  2  1  6
  2  3  1  0
  3  4  1  0
  4  5  1  0
 22 12  1  0
 12 19  2  0
 12 14  1  0
 14 13  1  0
 13 15  1  0
 15 20  2  0
 15 21  1  0
 23 16  2  0
 23 17  1  1
 23 18  1  0
 18 11  1  0
 11 10  1  0
 11  6  2  0
  6  7  1  0
  7  8  2  0
  8  9  1  0
  9 10  2  0
M  END
$$$$
