1a0q_ligand
     RDKit          3D

 23 23  0  0  0  0  0  0  0  0999 V2000
   13.1434   20.5219   59.3289 C   0  0  2  0  0  0  0  0  0  0  0  0
   12.2474   19.5784   58.5739 C   0  0  0  0  0  0  0  0  0  0  0  0
   11.4593   18.6667   59.4542 C   0  0  0  0  0  0  0  0  0  0  0  0
   10.8137   17.6150   58.5594 C   0  0  0  0  0  0  0  0  0  0  0  0
   11.6652   17.2624   57.3805 C   0  0  0  0  0  0  0  0  0  0  0  0
   16.7173   22.1278   55.8536 C   0  0  0  0  0  0  0  0  0  0  0  0
   16.9885   22.5817   54.5892 C   0  0  0  0  0  0  0  0  0  0  0  0
   16.1604   22.2983   53.5336 C   0  0  0  0  0  0  0  0  0  0  0  0
   15.0265   21.5259   53.8018 C   0  0  0  0  0  0  0  0  0  0  0  0
   14.7634   21.0755   55.0736 C   0  0  0  0  0  0  0  0  0  0  0  0
   15.5928   21.3575   56.1392 C   0  0  0  0  0  0  0  0  0  0  0  0
   12.7453   21.1335   61.7173 C   0  0  0  0  0  0  0  0  0  0  0  0
   11.0599   21.3086   63.5228 C   0  0  0  0  0  0  0  0  0  0  0  0
   12.1385   22.0082   62.7542 C   0  0  0  0  0  0  0  0  0  0  0  0
   11.6159   20.2747   64.4310 C   0  0  0  0  0  0  0  0  0  0  0  0
   13.0577   22.1774   57.2195 O   0  0  0  0  0  0  0  0  0  0  0  0
   14.6635   22.9813   59.0765 O   0  0  0  0  0  0  0  0  0  0  0  0
   15.3152   20.8960   57.4197 O   0  0  0  0  0  0  0  0  0  0  0  0
   13.5428   20.2284   62.0663 O   0  0  0  0  0  0  0  0  0  0  0  0
   11.1982   19.0875   64.4732 O   0  0  0  0  0  0  0  0  0  0  0  0
   12.6654   20.6990   65.2689 O   0  0  0  0  0  0  0  0  0  0  0  0
   12.4578   21.2804   60.3328 N   0  0  0  0  0  0  0  0  0  0  0  0
   14.0374   21.6500   58.2619 P   0  0  1  0  0  5  0  0  0  0  0  0
  1 23  1  0
  1 22  1  0
  1  2  1  6
  2  3  1  0
  3  4  1  0
  4  5  1  0
 22 12  1  0
 12 19  2  0
 12 14  1  0
 14 13  1  0
 13 15  1  0
 15 20  2  0
 15 21  1  0
 23 16  2  0
 23 17  1  1
 23 18  1  0
 18 11  1  0
 11 10  1  0
 11  6  2  0
  6  7  1  0
  7  8  2  0
  8  9  1  0
  9 10  2  0
M  END
$$$$
