1a0q_ligand
     RDKit          3D

 23 23  0  0  0  0  0  0  0  0999 V2000
   12.9740   20.5749   59.1557 C   0  0  2  0  0  0  0  0  0  0  0  0
   12.0425   19.8690   58.2085 C   0  0  0  0  0  0  0  0  0  0  0  0
   11.4063   18.6507   58.7900 C   0  0  0  0  0  0  0  0  0  0  0  0
   10.8045   17.8564   57.6365 C   0  0  0  0  0  0  0  0  0  0  0  0
   11.7338   16.8056   57.1158 C   0  0  0  0  0  0  0  0  0  0  0  0
   16.9465   22.1705   56.1117 C   0  0  0  0  0  0  0  0  0  0  0  0
   17.2484   22.2903   54.7802 C   0  0  0  0  0  0  0  0  0  0  0  0
   16.3887   21.8471   53.8083 C   0  0  0  0  0  0  0  0  0  0  0  0
   15.1897   21.2673   54.2333 C   0  0  0  0  0  0  0  0  0  0  0  0
   14.8962   21.1519   55.5713 C   0  0  0  0  0  0  0  0  0  0  0  0
   15.7573   21.5959   56.5533 C   0  0  0  0  0  0  0  0  0  0  0  0
   12.5726   20.5140   61.6199 C   0  0  0  0  0  0  0  0  0  0  0  0
   12.6108   20.6451   64.0923 C   0  0  0  0  0  0  0  0  0  0  0  0
   11.8627   20.9813   62.8389 C   0  0  0  0  0  0  0  0  0  0  0  0
   13.6572   21.6535   64.3938 C   0  0  0  0  0  0  0  0  0  0  0  0
   13.1138   22.3294   57.1310 O   0  0  0  0  0  0  0  0  0  0  0  0
   13.9969   23.2829   59.3635 O   0  0  0  0  0  0  0  0  0  0  0  0
   15.4485   21.4732   57.9020 O   0  0  0  0  0  0  0  0  0  0  0  0
   13.4248   19.5969   61.7182 O   0  0  0  0  0  0  0  0  0  0  0  0
   13.6712   22.8116   63.8994 O   0  0  0  0  0  0  0  0  0  0  0  0
   14.6643   21.2396   65.2870 O   0  0  0  0  0  0  0  0  0  0  0  0
   12.3247   21.0676   60.3342 N   0  0  0  0  0  0  0  0  0  0  0  0
   13.8748   21.9194   58.3869 P   0  0  1  0  0  5  0  0  0  0  0  0
  1 23  1  0
  1 22  1  0
  1  2  1  6
  2  3  1  0
  3  4  1  0
  4  5  1  0
 22 12  1  0
 12 19  2  0
 12 14  1  0
 14 13  1  0
 13 15  1  0
 15 20  2  0
 15 21  1  0
 23 16  2  0
 23 17  1  1
 23 18  1  0
 18 11  1  0
 11 10  1  0
 11  6  2  0
  6  7  1  0
  7  8  2  0
  8  9  1  0
  9 10  2  0
M  END
$$$$
