1a0q_ligand
     RDKit          3D

 23 23  0  0  0  0  0  0  0  0999 V2000
   13.1095   20.6830   59.1836 C   0  0  2  0  0  0  0  0  0  0  0  0
   12.0778   19.9938   58.3331 C   0  0  0  0  0  0  0  0  0  0  0  0
   11.5028   18.7691   58.9627 C   0  0  0  0  0  0  0  0  0  0  0  0
   11.0447   17.8498   57.8364 C   0  0  0  0  0  0  0  0  0  0  0  0
   12.0649   16.8106   57.4920 C   0  0  0  0  0  0  0  0  0  0  0  0
   14.9714   21.0649   55.2161 C   0  0  0  0  0  0  0  0  0  0  0  0
   15.2845   21.3605   53.9150 C   0  0  0  0  0  0  0  0  0  0  0  0
   16.4752   21.9535   53.5819 C   0  0  0  0  0  0  0  0  0  0  0  0
   17.3573   22.2443   54.6267 C   0  0  0  0  0  0  0  0  0  0  0  0
   17.0338   21.9438   55.9285 C   0  0  0  0  0  0  0  0  0  0  0  0
   15.8376   21.3473   56.2693 C   0  0  0  0  0  0  0  0  0  0  0  0
   12.9487   21.1075   61.6394 C   0  0  0  0  0  0  0  0  0  0  0  0
   11.3409   21.2712   63.5155 C   0  0  0  0  0  0  0  0  0  0  0  0
   12.4814   21.9197   62.7929 C   0  0  0  0  0  0  0  0  0  0  0  0
   11.8057   20.1776   64.4047 C   0  0  0  0  0  0  0  0  0  0  0  0
   13.3242   22.3522   57.0943 O   0  0  0  0  0  0  0  0  0  0  0  0
   14.6700   23.1299   59.1575 O   0  0  0  0  0  0  0  0  0  0  0  0
   15.5231   21.0490   57.5891 O   0  0  0  0  0  0  0  0  0  0  0  0
   13.7225   20.1395   61.8424 O   0  0  0  0  0  0  0  0  0  0  0  0
   12.9776   20.1002   64.8591 O   0  0  0  0  0  0  0  0  0  0  0  0
   10.8430   19.2010   64.7254 O   0  0  0  0  0  0  0  0  0  0  0  0
   12.5521   21.3835   60.3024 N   0  0  0  0  0  0  0  0  0  0  0  0
   14.1492   21.8094   58.2560 P   0  0  1  0  0  5  0  0  0  0  0  0
  1 23  1  0
  1 22  1  0
  1  2  1  6
  2  3  1  0
  3  4  1  0
  4  5  1  0
 22 12  1  0
 12 19  2  0
 12 14  1  0
 14 13  1  0
 13 15  1  0
 15 20  2  0
 15 21  1  0
 23 16  2  0
 23 17  1  1
 23 18  1  0
 18 11  1  0
 11 10  1  0
 11  6  2  0
  6  7  1  0
  7  8  2  0
  8  9  1  0
  9 10  2  0
M  END
$$$$
