1a0q_ligand
     RDKit          3D

 23 23  0  0  0  0  0  0  0  0999 V2000
   13.0171   20.4267   59.1769 C   0  0  2  0  0  0  0  0  0  0  0  0
   12.0710   19.7067   58.2551 C   0  0  0  0  0  0  0  0  0  0  0  0
   11.2757   18.6380   58.9279 C   0  0  0  0  0  0  0  0  0  0  0  0
   10.7527   17.7065   57.8406 C   0  0  0  0  0  0  0  0  0  0  0  0
   11.8393   16.8966   57.2062 C   0  0  0  0  0  0  0  0  0  0  0  0
   14.8899   21.0456   55.4391 C   0  0  0  0  0  0  0  0  0  0  0  0
   15.1840   21.2576   54.1174 C   0  0  0  0  0  0  0  0  0  0  0  0
   16.3652   21.8368   53.7305 C   0  0  0  0  0  0  0  0  0  0  0  0
   17.2579   22.2025   54.7423 C   0  0  0  0  0  0  0  0  0  0  0  0
   16.9535   21.9856   56.0651 C   0  0  0  0  0  0  0  0  0  0  0  0
   15.7669   21.4034   56.4601 C   0  0  0  0  0  0  0  0  0  0  0  0
   12.5949   20.4554   61.6381 C   0  0  0  0  0  0  0  0  0  0  0  0
   12.6832   20.7837   64.0908 C   0  0  0  0  0  0  0  0  0  0  0  0
   11.8903   20.9824   62.8357 C   0  0  0  0  0  0  0  0  0  0  0  0
   13.7164   21.8358   64.2593 C   0  0  0  0  0  0  0  0  0  0  0  0
   13.1510   22.1679   57.1402 O   0  0  0  0  0  0  0  0  0  0  0  0
   14.1912   23.0768   59.3231 O   0  0  0  0  0  0  0  0  0  0  0  0
   15.4717   21.1899   57.8006 O   0  0  0  0  0  0  0  0  0  0  0  0
   13.4143   19.5132   61.7719 O   0  0  0  0  0  0  0  0  0  0  0  0
   13.6134   22.9959   63.7803 O   0  0  0  0  0  0  0  0  0  0  0  0
   14.8521   21.4623   65.0036 O   0  0  0  0  0  0  0  0  0  0  0  0
   12.3777   20.9786   60.3343 N   0  0  0  0  0  0  0  0  0  0  0  0
   13.9494   21.7200   58.3594 P   0  0  1  0  0  5  0  0  0  0  0  0
  1 23  1  0
  1 22  1  0
  1  2  1  6
  2  3  1  0
  3  4  1  0
  4  5  1  0
 22 12  1  0
 12 19  2  0
 12 14  1  0
 14 13  1  0
 13 15  1  0
 15 20  2  0
 15 21  1  0
 23 16  2  0
 23 17  1  1
 23 18  1  0
 18 11  1  0
 11 10  1  0
 11  6  2  0
  6  7  1  0
  7  8  2  0
  8  9  1  0
  9 10  2  0
M  END
$$$$
