1a0q_ligand
     RDKit          3D

 23 23  0  0  0  0  0  0  0  0999 V2000
   13.2792   20.5508   59.3169 C   0  0  2  0  0  0  0  0  0  0  0  0
   12.3874   19.6550   58.5013 C   0  0  0  0  0  0  0  0  0  0  0  0
   11.4959   18.7863   59.3245 C   0  0  0  0  0  0  0  0  0  0  0  0
   11.4748   17.4082   58.6735 C   0  0  0  0  0  0  0  0  0  0  0  0
   11.3250   17.4774   57.1863 C   0  0  0  0  0  0  0  0  0  0  0  0
   14.7546   21.0673   55.2174 C   0  0  0  0  0  0  0  0  0  0  0  0
   14.9163   21.3866   53.8944 C   0  0  0  0  0  0  0  0  0  0  0  0
   15.9971   22.1097   53.4592 C   0  0  0  0  0  0  0  0  0  0  0  0
   16.9281   22.5080   54.4229 C   0  0  0  0  0  0  0  0  0  0  0  0
   16.7568   22.1826   55.7475 C   0  0  0  0  0  0  0  0  0  0  0  0
   15.6715   21.4555   56.1909 C   0  0  0  0  0  0  0  0  0  0  0  0
   12.9307   21.0019   61.7484 C   0  0  0  0  0  0  0  0  0  0  0  0
   11.0749   21.1555   63.3804 C   0  0  0  0  0  0  0  0  0  0  0  0
   12.3249   21.7902   62.8530 C   0  0  0  0  0  0  0  0  0  0  0  0
   11.3602   20.2406   64.5137 C   0  0  0  0  0  0  0  0  0  0  0  0
   13.1821   22.2650   57.2554 O   0  0  0  0  0  0  0  0  0  0  0  0
   14.6358   23.1144   59.2146 O   0  0  0  0  0  0  0  0  0  0  0  0
   15.5104   21.1335   57.5326 O   0  0  0  0  0  0  0  0  0  0  0  0
   13.7709   20.1087   62.0192 O   0  0  0  0  0  0  0  0  0  0  0  0
   10.4772   19.5572   65.0961 O   0  0  0  0  0  0  0  0  0  0  0  0
   12.7074   20.1719   64.9183 O   0  0  0  0  0  0  0  0  0  0  0  0
   12.5954   21.2192   60.3840 N   0  0  0  0  0  0  0  0  0  0  0  0
   14.1439   21.7712   58.3304 P   0  0  1  0  0  5  0  0  0  0  0  0
  1 23  1  0
  1 22  1  0
  1  2  1  6
  2  3  1  0
  3  4  1  0
  4  5  1  0
 22 12  1  0
 12 19  2  0
 12 14  1  0
 14 13  1  0
 13 15  1  0
 15 20  2  0
 15 21  1  0
 23 16  2  0
 23 17  1  1
 23 18  1  0
 18 11  1  0
 11 10  1  0
 11  6  2  0
  6  7  1  0
  7  8  2  0
  8  9  1  0
  9 10  2  0
M  END
$$$$
