1a0q_ligand
     RDKit          3D

 23 23  0  0  0  0  0  0  0  0999 V2000
   13.1729   20.6770   59.3323 C   0  0  2  0  0  0  0  0  0  0  0  0
   12.2192   19.8485   58.5156 C   0  0  0  0  0  0  0  0  0  0  0  0
   11.6944   18.6524   59.2375 C   0  0  0  0  0  0  0  0  0  0  0  0
   10.9124   17.8185   58.2292 C   0  0  0  0  0  0  0  0  0  0  0  0
   11.7785   16.8440   57.4947 C   0  0  0  0  0  0  0  0  0  0  0  0
   14.8206   21.0044   55.2539 C   0  0  0  0  0  0  0  0  0  0  0  0
   15.0399   21.2997   53.9336 C   0  0  0  0  0  0  0  0  0  0  0  0
   16.1399   22.0134   53.5326 C   0  0  0  0  0  0  0  0  0  0  0  0
   17.0294   22.4277   54.5282 C   0  0  0  0  0  0  0  0  0  0  0  0
   16.8005   22.1264   55.8498 C   0  0  0  0  0  0  0  0  0  0  0  0
   15.6956   21.4088   56.2590 C   0  0  0  0  0  0  0  0  0  0  0  0
   12.8608   21.1539   61.7638 C   0  0  0  0  0  0  0  0  0  0  0  0
   11.4468   21.3618   63.7858 C   0  0  0  0  0  0  0  0  0  0  0  0
   12.4023   22.0480   62.8586 C   0  0  0  0  0  0  0  0  0  0  0  0
   11.8640   19.9659   64.0688 C   0  0  0  0  0  0  0  0  0  0  0  0
   13.2166   22.3532   57.2381 O   0  0  0  0  0  0  0  0  0  0  0  0
   14.6608   23.1662   59.2196 O   0  0  0  0  0  0  0  0  0  0  0  0
   15.4762   21.1111   57.5980 O   0  0  0  0  0  0  0  0  0  0  0  0
   13.5590   20.1481   62.0430 O   0  0  0  0  0  0  0  0  0  0  0  0
   11.4935   18.9760   63.3841 O   0  0  0  0  0  0  0  0  0  0  0  0
   12.7204   19.7970   65.1740 O   0  0  0  0  0  0  0  0  0  0  0  0
   12.5386   21.3920   60.3998 N   0  0  0  0  0  0  0  0  0  0  0  0
   14.1239   21.8326   58.3473 P   0  0  1  0  0  5  0  0  0  0  0  0
  1 23  1  0
  1 22  1  0
  1  2  1  6
  2  3  1  0
  3  4  1  0
  4  5  1  0
 22 12  1  0
 12 19  2  0
 12 14  1  0
 14 13  1  0
 13 15  1  0
 15 20  2  0
 15 21  1  0
 23 16  2  0
 23 17  1  1
 23 18  1  0
 18 11  1  0
 11 10  1  0
 11  6  2  0
  6  7  1  0
  7  8  2  0
  8  9  1  0
  9 10  2  0
M  END
$$$$
