1a0q_ligand
     RDKit          3D

 23 23  0  0  0  0  0  0  0  0999 V2000
   13.2367   20.5486   59.2700 C   0  0  2  0  0  0  0  0  0  0  0  0
   12.3033   19.6737   58.4787 C   0  0  0  0  0  0  0  0  0  0  0  0
   11.5825   18.6629   59.3069 C   0  0  0  0  0  0  0  0  0  0  0  0
   10.9207   17.6781   58.3500 C   0  0  0  0  0  0  0  0  0  0  0  0
   11.8896   17.0822   57.3778 C   0  0  0  0  0  0  0  0  0  0  0  0
   14.7729   21.1529   55.1203 C   0  0  0  0  0  0  0  0  0  0  0  0
   14.9843   21.5352   53.8212 C   0  0  0  0  0  0  0  0  0  0  0  0
   16.0974   22.2480   53.4566 C   0  0  0  0  0  0  0  0  0  0  0  0
   17.0088   22.5688   54.4669 C   0  0  0  0  0  0  0  0  0  0  0  0
   16.7876   22.1807   55.7669 C   0  0  0  0  0  0  0  0  0  0  0  0
   15.6696   21.4635   56.1395 C   0  0  0  0  0  0  0  0  0  0  0  0
   12.9330   20.9882   61.7096 C   0  0  0  0  0  0  0  0  0  0  0  0
   11.2071   21.2441   63.4665 C   0  0  0  0  0  0  0  0  0  0  0  0
   12.4259   21.8311   62.8235 C   0  0  0  0  0  0  0  0  0  0  0  0
   11.5494   20.1031   64.3518 C   0  0  0  0  0  0  0  0  0  0  0  0
   13.1429   22.2371   57.1873 O   0  0  0  0  0  0  0  0  0  0  0  0
   14.6269   23.0919   59.1211 O   0  0  0  0  0  0  0  0  0  0  0  0
   15.4582   21.0775   57.4570 O   0  0  0  0  0  0  0  0  0  0  0  0
   13.6878   20.0181   61.9670 O   0  0  0  0  0  0  0  0  0  0  0  0
   12.5381   20.0990   65.1317 O   0  0  0  0  0  0  0  0  0  0  0  0
   10.6884   18.9913   64.2748 O   0  0  0  0  0  0  0  0  0  0  0  0
   12.5958   21.2368   60.3511 N   0  0  0  0  0  0  0  0  0  0  0  0
   14.1083   21.7442   58.2594 P   0  0  1  0  0  5  0  0  0  0  0  0
  1 23  1  0
  1 22  1  0
  1  2  1  6
  2  3  1  0
  3  4  1  0
  4  5  1  0
 22 12  1  0
 12 19  2  0
 12 14  1  0
 14 13  1  0
 13 15  1  0
 15 20  2  0
 15 21  1  0
 23 16  2  0
 23 17  1  1
 23 18  1  0
 18 11  1  0
 11 10  1  0
 11  6  2  0
  6  7  1  0
  7  8  2  0
  8  9  1  0
  9 10  2  0
M  END
$$$$
