1a0q_ligand
     RDKit          3D

 23 23  0  0  0  0  0  0  0  0999 V2000
   13.0437   20.5619   59.1344 C   0  0  2  0  0  0  0  0  0  0  0  0
   12.1794   19.7507   58.2082 C   0  0  0  0  0  0  0  0  0  0  0  0
   11.4754   18.6202   58.8816 C   0  0  0  0  0  0  0  0  0  0  0  0
   10.7886   17.7997   57.7960 C   0  0  0  0  0  0  0  0  0  0  0  0
   11.7121   16.8170   57.1476 C   0  0  0  0  0  0  0  0  0  0  0  0
   14.8552   21.0867   55.4341 C   0  0  0  0  0  0  0  0  0  0  0  0
   15.1221   21.2069   54.0952 C   0  0  0  0  0  0  0  0  0  0  0  0
   16.2822   21.7829   53.6451 C   0  0  0  0  0  0  0  0  0  0  0  0
   17.1824   22.2431   54.6106 C   0  0  0  0  0  0  0  0  0  0  0  0
   16.9054   22.1178   55.9512 C   0  0  0  0  0  0  0  0  0  0  0  0
   15.7400   21.5392   56.4097 C   0  0  0  0  0  0  0  0  0  0  0  0
   12.6225   20.7410   61.5895 C   0  0  0  0  0  0  0  0  0  0  0  0
   12.4312   20.8128   64.0572 C   0  0  0  0  0  0  0  0  0  0  0  0
   11.8983   21.3181   62.7518 C   0  0  0  0  0  0  0  0  0  0  0  0
   13.6063   21.5979   64.5107 C   0  0  0  0  0  0  0  0  0  0  0  0
   13.1140   22.2709   57.0676 O   0  0  0  0  0  0  0  0  0  0  0  0
   14.0864   23.2682   59.2430 O   0  0  0  0  0  0  0  0  0  0  0  0
   15.4724   21.4189   57.7675 O   0  0  0  0  0  0  0  0  0  0  0  0
   13.5289   19.8949   61.7883 O   0  0  0  0  0  0  0  0  0  0  0  0
   13.8658   22.7610   64.1038 O   0  0  0  0  0  0  0  0  0  0  0  0
   14.4425   20.9592   65.4469 O   0  0  0  0  0  0  0  0  0  0  0  0
   12.3290   21.1106   60.2485 N   0  0  0  0  0  0  0  0  0  0  0  0
   13.9206   21.8843   58.3022 P   0  0  1  0  0  5  0  0  0  0  0  0
  1 23  1  0
  1 22  1  0
  1  2  1  6
  2  3  1  0
  3  4  1  0
  4  5  1  0
 22 12  1  0
 12 19  2  0
 12 14  1  0
 14 13  1  0
 13 15  1  0
 15 20  2  0
 15 21  1  0
 23 16  2  0
 23 17  1  1
 23 18  1  0
 18 11  1  0
 11 10  1  0
 11  6  2  0
  6  7  1  0
  7  8  2  0
  8  9  1  0
  9 10  2  0
M  END
$$$$
