1a0q_ligand
     RDKit          3D

 23 23  0  0  0  0  0  0  0  0999 V2000
   13.2169   20.5465   59.3224 C   0  0  2  0  0  0  0  0  0  0  0  0
   12.2445   19.7256   58.5201 C   0  0  0  0  0  0  0  0  0  0  0  0
   11.4483   18.7673   59.3416 C   0  0  0  0  0  0  0  0  0  0  0  0
   10.7613   17.8043   58.3802 C   0  0  0  0  0  0  0  0  0  0  0  0
   11.7262   17.1253   57.4598 C   0  0  0  0  0  0  0  0  0  0  0  0
   16.7563   22.0909   55.7522 C   0  0  0  0  0  0  0  0  0  0  0  0
   16.9507   22.5098   54.4618 C   0  0  0  0  0  0  0  0  0  0  0  0
   16.0199   22.2710   53.4836 C   0  0  0  0  0  0  0  0  0  0  0  0
   14.8630   21.5815   53.8583 C   0  0  0  0  0  0  0  0  0  0  0  0
   14.6776   21.1656   55.1553 C   0  0  0  0  0  0  0  0  0  0  0  0
   15.6105   21.4030   56.1434 C   0  0  0  0  0  0  0  0  0  0  0  0
   12.9873   21.0259   61.7625 C   0  0  0  0  0  0  0  0  0  0  0  0
   11.1178   21.4013   63.3422 C   0  0  0  0  0  0  0  0  0  0  0  0
   12.4704   21.8530   62.8837 C   0  0  0  0  0  0  0  0  0  0  0  0
   11.2123   20.2728   64.3015 C   0  0  0  0  0  0  0  0  0  0  0  0
   13.1850   22.3206   57.3101 O   0  0  0  0  0  0  0  0  0  0  0  0
   14.7953   22.9797   59.2193 O   0  0  0  0  0  0  0  0  0  0  0  0
   15.4106   20.9771   57.4505 O   0  0  0  0  0  0  0  0  0  0  0  0
   13.7896   20.0913   62.0070 O   0  0  0  0  0  0  0  0  0  0  0  0
   10.2280   19.5664   64.6449 O   0  0  0  0  0  0  0  0  0  0  0  0
   12.4956   20.0227   64.8251 O   0  0  0  0  0  0  0  0  0  0  0  0
   12.6075   21.2510   60.4112 N   0  0  0  0  0  0  0  0  0  0  0  0
   14.1445   21.7119   58.3267 P   0  0  1  0  0  5  0  0  0  0  0  0
  1 23  1  0
  1 22  1  0
  1  2  1  6
  2  3  1  0
  3  4  1  0
  4  5  1  0
 22 12  1  0
 12 19  2  0
 12 14  1  0
 14 13  1  0
 13 15  1  0
 15 20  2  0
 15 21  1  0
 23 16  2  0
 23 17  1  1
 23 18  1  0
 18 11  1  0
 11 10  1  0
 11  6  2  0
  6  7  1  0
  7  8  2  0
  8  9  1  0
  9 10  2  0
M  END
$$$$
