1a0q_ligand
     RDKit          3D

 23 23  0  0  0  0  0  0  0  0999 V2000
   13.1554   20.5757   59.2957 C   0  0  2  0  0  0  0  0  0  0  0  0
   12.0726   19.8305   58.5641 C   0  0  0  0  0  0  0  0  0  0  0  0
   11.5455   18.6518   59.3124 C   0  0  0  0  0  0  0  0  0  0  0  0
   11.9278   17.4040   58.5247 C   0  0  0  0  0  0  0  0  0  0  0  0
   11.3385   17.3897   57.1493 C   0  0  0  0  0  0  0  0  0  0  0  0
   16.8437   22.0992   55.8539 C   0  0  0  0  0  0  0  0  0  0  0  0
   17.1122   22.4632   54.5602 C   0  0  0  0  0  0  0  0  0  0  0  0
   16.2553   22.1515   53.5360 C   0  0  0  0  0  0  0  0  0  0  0  0
   15.0949   21.4459   53.8675 C   0  0  0  0  0  0  0  0  0  0  0  0
   14.8348   21.0855   55.1683 C   0  0  0  0  0  0  0  0  0  0  0  0
   15.6932   21.3964   56.2025 C   0  0  0  0  0  0  0  0  0  0  0  0
   13.0665   20.8942   61.7711 C   0  0  0  0  0  0  0  0  0  0  0  0
   11.2779   21.4072   63.4048 C   0  0  0  0  0  0  0  0  0  0  0  0
   12.6845   21.6840   62.9705 C   0  0  0  0  0  0  0  0  0  0  0  0
   11.1576   20.0823   64.0627 C   0  0  0  0  0  0  0  0  0  0  0  0
   13.1079   22.1652   57.1350 O   0  0  0  0  0  0  0  0  0  0  0  0
   14.5443   23.1132   59.0613 O   0  0  0  0  0  0  0  0  0  0  0  0
   15.4182   21.0260   57.5128 O   0  0  0  0  0  0  0  0  0  0  0  0
   13.7515   19.8514   61.9141 O   0  0  0  0  0  0  0  0  0  0  0  0
   10.6528   19.0717   63.5062 O   0  0  0  0  0  0  0  0  0  0  0  0
   11.6505   20.0080   65.3800 O   0  0  0  0  0  0  0  0  0  0  0  0
   12.6851   21.2738   60.4553 N   0  0  0  0  0  0  0  0  0  0  0  0
   14.0485   21.7254   58.2513 P   0  0  1  0  0  5  0  0  0  0  0  0
  1 23  1  0
  1 22  1  0
  1  2  1  6
  2  3  1  0
  3  4  1  0
  4  5  1  0
 22 12  1  0
 12 19  2  0
 12 14  1  0
 14 13  1  0
 13 15  1  0
 15 20  2  0
 15 21  1  0
 23 16  2  0
 23 17  1  1
 23 18  1  0
 18 11  1  0
 11 10  1  0
 11  6  2  0
  6  7  1  0
  7  8  2  0
  8  9  1  0
  9 10  2  0
M  END
$$$$
