1a0q_ligand
     RDKit          3D

 23 23  0  0  0  0  0  0  0  0999 V2000
   13.2856   20.6388   59.3258 C   0  0  2  0  0  0  0  0  0  0  0  0
   12.4556   19.7441   58.4462 C   0  0  0  0  0  0  0  0  0  0  0  0
   11.6253   18.7621   59.2034 C   0  0  0  0  0  0  0  0  0  0  0  0
   10.9618   17.8441   58.1833 C   0  0  0  0  0  0  0  0  0  0  0  0
   11.9469   16.9776   57.4636 C   0  0  0  0  0  0  0  0  0  0  0  0
   14.7013   21.0617   55.4023 C   0  0  0  0  0  0  0  0  0  0  0  0
   14.8021   21.2358   54.0466 C   0  0  0  0  0  0  0  0  0  0  0  0
   15.8626   21.9010   53.4869 C   0  0  0  0  0  0  0  0  0  0  0  0
   16.8377   22.3948   54.3584 C   0  0  0  0  0  0  0  0  0  0  0  0
   16.7273   22.2149   55.7168 C   0  0  0  0  0  0  0  0  0  0  0  0
   15.6628   21.5466   56.2853 C   0  0  0  0  0  0  0  0  0  0  0  0
   12.8848   21.0434   61.7574 C   0  0  0  0  0  0  0  0  0  0  0  0
   12.0606   20.8894   64.0872 C   0  0  0  0  0  0  0  0  0  0  0  0
   12.1850   21.7455   62.8645 C   0  0  0  0  0  0  0  0  0  0  0  0
   11.1201   19.7614   63.8738 C   0  0  0  0  0  0  0  0  0  0  0  0
   13.2029   22.4149   57.3169 O   0  0  0  0  0  0  0  0  0  0  0  0
   14.5349   23.2581   59.3633 O   0  0  0  0  0  0  0  0  0  0  0  0
   15.5635   21.3718   57.6598 O   0  0  0  0  0  0  0  0  0  0  0  0
   13.8149   20.2439   62.0270 O   0  0  0  0  0  0  0  0  0  0  0  0
   10.0549   19.8591   63.2092 O   0  0  0  0  0  0  0  0  0  0  0  0
   11.4880   18.5390   64.4687 O   0  0  0  0  0  0  0  0  0  0  0  0
   12.5417   21.2411   60.3920 N   0  0  0  0  0  0  0  0  0  0  0  0
   14.1385   21.9258   58.4168 P   0  0  1  0  0  5  0  0  0  0  0  0
  1 23  1  0
  1 22  1  0
  1  2  1  6
  2  3  1  0
  3  4  1  0
  4  5  1  0
 22 12  1  0
 12 19  2  0
 12 14  1  0
 14 13  1  0
 13 15  1  0
 15 20  2  0
 15 21  1  0
 23 16  2  0
 23 17  1  1
 23 18  1  0
 18 11  1  0
 11 10  1  0
 11  6  2  0
  6  7  1  0
  7  8  2  0
  8  9  1  0
  9 10  2  0
M  END
$$$$
