1a0q_ligand
     RDKit          3D

 23 23  0  0  0  0  0  0  0  0999 V2000
   13.1402   20.5713   59.2236 C   0  0  2  0  0  0  0  0  0  0  0  0
   12.3106   19.7161   58.3053 C   0  0  0  0  0  0  0  0  0  0  0  0
   11.3725   18.8027   59.0214 C   0  0  0  0  0  0  0  0  0  0  0  0
   10.7417   17.8879   57.9779 C   0  0  0  0  0  0  0  0  0  0  0  0
   11.7128   16.8939   57.4229 C   0  0  0  0  0  0  0  0  0  0  0  0
   16.9183   22.0719   55.8995 C   0  0  0  0  0  0  0  0  0  0  0  0
   17.1432   22.1949   54.5532 C   0  0  0  0  0  0  0  0  0  0  0  0
   16.2622   21.6913   53.6310 C   0  0  0  0  0  0  0  0  0  0  0  0
   15.1234   21.0463   54.1225 C   0  0  0  0  0  0  0  0  0  0  0  0
   14.9070   20.9282   55.4749 C   0  0  0  0  0  0  0  0  0  0  0  0
   15.7899   21.4329   56.4070 C   0  0  0  0  0  0  0  0  0  0  0  0
   12.5767   20.8229   61.6435 C   0  0  0  0  0  0  0  0  0  0  0  0
   11.9531   20.7121   64.0373 C   0  0  0  0  0  0  0  0  0  0  0  0
   11.8115   21.4595   62.7470 C   0  0  0  0  0  0  0  0  0  0  0  0
   13.1015   21.2086   64.8356 C   0  0  0  0  0  0  0  0  0  0  0  0
   13.2240   22.2813   57.1581 O   0  0  0  0  0  0  0  0  0  0  0  0
   14.3244   23.2199   59.2985 O   0  0  0  0  0  0  0  0  0  0  0  0
   15.5591   21.3066   57.7710 O   0  0  0  0  0  0  0  0  0  0  0  0
   13.4274   19.9399   61.9148 O   0  0  0  0  0  0  0  0  0  0  0  0
   13.6189   22.3460   64.6787 O   0  0  0  0  0  0  0  0  0  0  0  0
   13.5998   20.3187   65.8069 O   0  0  0  0  0  0  0  0  0  0  0  0
   12.3838   21.1756   60.2799 N   0  0  0  0  0  0  0  0  0  0  0  0
   14.0536   21.8495   58.3622 P   0  0  1  0  0  5  0  0  0  0  0  0
  1 23  1  0
  1 22  1  0
  1  2  1  6
  2  3  1  0
  3  4  1  0
  4  5  1  0
 22 12  1  0
 12 19  2  0
 12 14  1  0
 14 13  1  0
 13 15  1  0
 15 20  2  0
 15 21  1  0
 23 16  2  0
 23 17  1  1
 23 18  1  0
 18 11  1  0
 11 10  1  0
 11  6  2  0
  6  7  1  0
  7  8  2  0
  8  9  1  0
  9 10  2  0
M  END
$$$$
