1a0q_ligand
     RDKit          3D

 23 23  0  0  0  0  0  0  0  0999 V2000
   13.0305   20.6052   59.2567 C   0  0  2  0  0  0  0  0  0  0  0  0
   12.1739   19.7927   58.3244 C   0  0  0  0  0  0  0  0  0  0  0  0
   11.4845   18.6477   58.9883 C   0  0  0  0  0  0  0  0  0  0  0  0
   10.8142   17.8235   57.8951 C   0  0  0  0  0  0  0  0  0  0  0  0
   11.7726   16.9153   57.1910 C   0  0  0  0  0  0  0  0  0  0  0  0
   14.7231   21.2712   55.3930 C   0  0  0  0  0  0  0  0  0  0  0  0
   14.9537   21.5573   54.0727 C   0  0  0  0  0  0  0  0  0  0  0  0
   16.1182   22.1536   53.6619 C   0  0  0  0  0  0  0  0  0  0  0  0
   17.0614   22.4578   54.6479 C   0  0  0  0  0  0  0  0  0  0  0  0
   16.8205   22.1668   55.9696 C   0  0  0  0  0  0  0  0  0  0  0  0
   15.6509   21.5670   56.3885 C   0  0  0  0  0  0  0  0  0  0  0  0
   12.4864   20.8294   61.6837 C   0  0  0  0  0  0  0  0  0  0  0  0
   11.7708   20.6588   64.0481 C   0  0  0  0  0  0  0  0  0  0  0  0
   11.7762   21.4961   62.8060 C   0  0  0  0  0  0  0  0  0  0  0  0
   12.8225   21.0878   65.0034 C   0  0  0  0  0  0  0  0  0  0  0  0
   13.1214   22.4153   57.2786 O   0  0  0  0  0  0  0  0  0  0  0  0
   14.3716   23.1745   59.4078 O   0  0  0  0  0  0  0  0  0  0  0  0
   15.4201   21.2784   57.7275 O   0  0  0  0  0  0  0  0  0  0  0  0
   13.2874   19.8946   61.9317 O   0  0  0  0  0  0  0  0  0  0  0  0
   13.5532   22.0982   64.8271 O   0  0  0  0  0  0  0  0  0  0  0  0
   12.9679   20.2856   66.1517 O   0  0  0  0  0  0  0  0  0  0  0  0
   12.2948   21.2098   60.3274 N   0  0  0  0  0  0  0  0  0  0  0  0
   13.9779   21.8736   58.4177 P   0  0  1  0  0  5  0  0  0  0  0  0
  1 23  1  0
  1 22  1  0
  1  2  1  6
  2  3  1  0
  3  4  1  0
  4  5  1  0
 22 12  1  0
 12 19  2  0
 12 14  1  0
 14 13  1  0
 13 15  1  0
 15 20  2  0
 15 21  1  0
 23 16  2  0
 23 17  1  1
 23 18  1  0
 18 11  1  0
 11 10  1  0
 11  6  2  0
  6  7  1  0
  7  8  2  0
  8  9  1  0
  9 10  2  0
M  END
$$$$
