1a0q_ligand
     RDKit          3D

 23 23  0  0  0  0  0  0  0  0999 V2000
   13.0270   20.6140   59.1268 C   0  0  2  0  0  0  0  0  0  0  0  0
   12.1227   19.8481   58.2003 C   0  0  0  0  0  0  0  0  0  0  0  0
   11.5110   18.6382   58.8242 C   0  0  0  0  0  0  0  0  0  0  0  0
   10.8082   17.8607   57.7174 C   0  0  0  0  0  0  0  0  0  0  0  0
   11.6492   16.7493   57.1728 C   0  0  0  0  0  0  0  0  0  0  0  0
   14.8744   21.2135   55.4189 C   0  0  0  0  0  0  0  0  0  0  0  0
   15.1596   21.3786   54.0886 C   0  0  0  0  0  0  0  0  0  0  0  0
   16.3366   21.9466   53.6736 C   0  0  0  0  0  0  0  0  0  0  0  0
   17.2346   22.3508   54.6658 C   0  0  0  0  0  0  0  0  0  0  0  0
   16.9392   22.1807   55.9975 C   0  0  0  0  0  0  0  0  0  0  0  0
   15.7568   21.6099   56.4207 C   0  0  0  0  0  0  0  0  0  0  0  0
   12.5637   20.6604   61.5804 C   0  0  0  0  0  0  0  0  0  0  0  0
   12.2472   20.5125   64.0318 C   0  0  0  0  0  0  0  0  0  0  0  0
   11.8769   21.2287   62.7694 C   0  0  0  0  0  0  0  0  0  0  0  0
   13.4808   21.0720   64.6383 C   0  0  0  0  0  0  0  0  0  0  0  0
   13.1268   22.3382   57.0739 O   0  0  0  0  0  0  0  0  0  0  0  0
   14.1116   23.3027   59.2585 O   0  0  0  0  0  0  0  0  0  0  0  0
   15.4707   21.4439   57.7699 O   0  0  0  0  0  0  0  0  0  0  0  0
   13.3650   19.7053   61.7313 O   0  0  0  0  0  0  0  0  0  0  0  0
   13.8996   22.2384   64.4146 O   0  0  0  0  0  0  0  0  0  0  0  0
   14.1817   20.2086   65.5024 O   0  0  0  0  0  0  0  0  0  0  0  0
   12.3493   21.1579   60.2661 N   0  0  0  0  0  0  0  0  0  0  0  0
   13.9256   21.9292   58.3064 P   0  0  1  0  0  5  0  0  0  0  0  0
  1 23  1  0
  1 22  1  0
  1  2  1  6
  2  3  1  0
  3  4  1  0
  4  5  1  0
 22 12  1  0
 12 19  2  0
 12 14  1  0
 14 13  1  0
 13 15  1  0
 15 20  2  0
 15 21  1  0
 23 16  2  0
 23 17  1  1
 23 18  1  0
 18 11  1  0
 11 10  1  0
 11  6  2  0
  6  7  1  0
  7  8  2  0
  8  9  1  0
  9 10  2  0
M  END
$$$$
