1a0q_ligand
     RDKit          3D

 23 23  0  0  0  0  0  0  0  0999 V2000
   13.2931   20.5213   59.3816 C   0  0  2  0  0  0  0  0  0  0  0  0
   12.4494   19.5423   58.6117 C   0  0  0  0  0  0  0  0  0  0  0  0
   11.9454   18.4060   59.4375 C   0  0  0  0  0  0  0  0  0  0  0  0
   11.5916   17.2711   58.4834 C   0  0  0  0  0  0  0  0  0  0  0  0
   11.0650   17.7653   57.1728 C   0  0  0  0  0  0  0  0  0  0  0  0
   14.8801   20.7616   55.2548 C   0  0  0  0  0  0  0  0  0  0  0  0
   15.0660   21.0218   53.9221 C   0  0  0  0  0  0  0  0  0  0  0  0
   16.0987   21.8101   53.4836 C   0  0  0  0  0  0  0  0  0  0  0  0
   16.9551   22.3379   54.4544 C   0  0  0  0  0  0  0  0  0  0  0  0
   16.7600   22.0710   55.7887 C   0  0  0  0  0  0  0  0  0  0  0  0
   15.7228   21.2787   56.2355 C   0  0  0  0  0  0  0  0  0  0  0  0
   12.8794   21.1670   61.7584 C   0  0  0  0  0  0  0  0  0  0  0  0
   11.1465   21.2141   63.5264 C   0  0  0  0  0  0  0  0  0  0  0  0
   12.1903   21.9914   62.7850 C   0  0  0  0  0  0  0  0  0  0  0  0
   11.7331   20.4390   64.6479 C   0  0  0  0  0  0  0  0  0  0  0  0
   13.2002   22.1034   57.2169 O   0  0  0  0  0  0  0  0  0  0  0  0
   14.6241   23.0884   59.1340 O   0  0  0  0  0  0  0  0  0  0  0  0
   15.5370   21.0168   57.5870 O   0  0  0  0  0  0  0  0  0  0  0  0
   13.7780   20.3655   62.1152 O   0  0  0  0  0  0  0  0  0  0  0  0
   12.8264   20.7318   65.1999 O   0  0  0  0  0  0  0  0  0  0  0  0
   10.9846   19.3261   65.0778 O   0  0  0  0  0  0  0  0  0  0  0  0
   12.5606   21.2487   60.3754 N   0  0  0  0  0  0  0  0  0  0  0  0
   14.1556   21.6877   58.3301 P   0  0  1  0  0  5  0  0  0  0  0  0
  1 23  1  0
  1 22  1  0
  1  2  1  6
  2  3  1  0
  3  4  1  0
  4  5  1  0
 22 12  1  0
 12 19  2  0
 12 14  1  0
 14 13  1  0
 13 15  1  0
 15 20  2  0
 15 21  1  0
 23 16  2  0
 23 17  1  1
 23 18  1  0
 18 11  1  0
 11 10  1  0
 11  6  2  0
  6  7  1  0
  7  8  2  0
  8  9  1  0
  9 10  2  0
M  END
$$$$
