1a0q_ligand
     RDKit          3D

 23 23  0  0  0  0  0  0  0  0999 V2000
   13.0226   20.5469   59.0953 C   0  0  2  0  0  0  0  0  0  0  0  0
   12.0984   19.8396   58.1421 C   0  0  0  0  0  0  0  0  0  0  0  0
   11.4742   18.6103   58.7134 C   0  0  0  0  0  0  0  0  0  0  0  0
   10.7538   17.8946   57.5766 C   0  0  0  0  0  0  0  0  0  0  0  0
   11.5115   16.7061   57.0742 C   0  0  0  0  0  0  0  0  0  0  0  0
   16.9760   22.1972   56.0155 C   0  0  0  0  0  0  0  0  0  0  0  0
   17.2655   22.4706   54.7041 C   0  0  0  0  0  0  0  0  0  0  0  0
   16.3778   22.1820   53.6996 C   0  0  0  0  0  0  0  0  0  0  0  0
   15.1636   21.5965   54.0700 C   0  0  0  0  0  0  0  0  0  0  0  0
   14.8828   21.3262   55.3882 C   0  0  0  0  0  0  0  0  0  0  0  0
   15.7720   21.6144   56.4028 C   0  0  0  0  0  0  0  0  0  0  0  0
   12.5828   20.5516   61.5537 C   0  0  0  0  0  0  0  0  0  0  0  0
   12.6992   20.9731   63.9909 C   0  0  0  0  0  0  0  0  0  0  0  0
   11.8640   21.0607   62.7506 C   0  0  0  0  0  0  0  0  0  0  0  0
   13.6456   22.1114   64.0966 C   0  0  0  0  0  0  0  0  0  0  0  0
   13.1611   22.3625   57.1250 O   0  0  0  0  0  0  0  0  0  0  0  0
   14.2259   23.1772   59.3331 O   0  0  0  0  0  0  0  0  0  0  0  0
   15.4757   21.3360   57.7311 O   0  0  0  0  0  0  0  0  0  0  0  0
   13.4217   19.6267   61.6874 O   0  0  0  0  0  0  0  0  0  0  0  0
   13.3835   23.2748   63.6919 O   0  0  0  0  0  0  0  0  0  0  0  0
   14.8890   21.8183   64.6895 O   0  0  0  0  0  0  0  0  0  0  0  0
   12.3581   21.0734   60.2505 N   0  0  0  0  0  0  0  0  0  0  0  0
   13.9631   21.8605   58.3206 P   0  0  1  0  0  5  0  0  0  0  0  0
  1 23  1  0
  1 22  1  0
  1  2  1  6
  2  3  1  0
  3  4  1  0
  4  5  1  0
 22 12  1  0
 12 19  2  0
 12 14  1  0
 14 13  1  0
 13 15  1  0
 15 20  2  0
 15 21  1  0
 23 16  2  0
 23 17  1  1
 23 18  1  0
 18 11  1  0
 11 10  1  0
 11  6  2  0
  6  7  1  0
  7  8  2  0
  8  9  1  0
  9 10  2  0
M  END
$$$$
