1a0q_ligand
     RDKit          3D

 23 23  0  0  0  0  0  0  0  0999 V2000
   13.1884   20.4092   59.2415 C   0  0  2  0  0  0  0  0  0  0  0  0
   12.3691   19.4900   58.3773 C   0  0  0  0  0  0  0  0  0  0  0  0
   11.3585   18.6963   59.1361 C   0  0  0  0  0  0  0  0  0  0  0  0
   11.2841   17.3173   58.4908 C   0  0  0  0  0  0  0  0  0  0  0  0
   11.5496   17.3567   57.0187 C   0  0  0  0  0  0  0  0  0  0  0  0
   16.8873   22.0344   55.8602 C   0  0  0  0  0  0  0  0  0  0  0  0
   17.1201   22.3244   54.5410 C   0  0  0  0  0  0  0  0  0  0  0  0
   16.2532   21.9256   53.5563 C   0  0  0  0  0  0  0  0  0  0  0  0
   15.1204   21.2099   53.9550 C   0  0  0  0  0  0  0  0  0  0  0  0
   14.8960   20.9242   55.2808 C   0  0  0  0  0  0  0  0  0  0  0  0
   15.7646   21.3228   56.2756 C   0  0  0  0  0  0  0  0  0  0  0  0
   12.6420   20.8335   61.6411 C   0  0  0  0  0  0  0  0  0  0  0  0
   12.0192   20.9110   64.0364 C   0  0  0  0  0  0  0  0  0  0  0  0
   11.9198   21.5833   62.7016 C   0  0  0  0  0  0  0  0  0  0  0  0
   13.1496   21.4445   64.8366 C   0  0  0  0  0  0  0  0  0  0  0  0
   13.1966   22.0976   57.1566 O   0  0  0  0  0  0  0  0  0  0  0  0
   14.4870   23.0044   59.2024 O   0  0  0  0  0  0  0  0  0  0  0  0
   15.5258   21.0273   57.6117 O   0  0  0  0  0  0  0  0  0  0  0  0
   13.4778   19.9556   61.9694 O   0  0  0  0  0  0  0  0  0  0  0  0
   13.5557   20.9175   65.9058 O   0  0  0  0  0  0  0  0  0  0  0  0
   13.7647   22.6041   64.3264 O   0  0  0  0  0  0  0  0  0  0  0  0
   12.4239   21.0712   60.2566 N   0  0  0  0  0  0  0  0  0  0  0  0
   14.0913   21.6397   58.3030 P   0  0  1  0  0  5  0  0  0  0  0  0
  1 23  1  0
  1 22  1  0
  1  2  1  6
  2  3  1  0
  3  4  1  0
  4  5  1  0
 22 12  1  0
 12 19  2  0
 12 14  1  0
 14 13  1  0
 13 15  1  0
 15 20  2  0
 15 21  1  0
 23 16  2  0
 23 17  1  1
 23 18  1  0
 18 11  1  0
 11 10  1  0
 11  6  2  0
  6  7  1  0
  7  8  2  0
  8  9  1  0
  9 10  2  0
M  END
$$$$
