1a0q_ligand
     RDKit          3D

 23 23  0  0  0  0  0  0  0  0999 V2000
   12.9879   20.2240   59.0482 C   0  0  2  0  0  0  0  0  0  0  0  0
   12.0866   19.3733   58.1957 C   0  0  0  0  0  0  0  0  0  0  0  0
   11.2480   18.4180   58.9776 C   0  0  0  0  0  0  0  0  0  0  0  0
   11.1321   17.1376   58.1587 C   0  0  0  0  0  0  0  0  0  0  0  0
   11.5706   17.3213   56.7399 C   0  0  0  0  0  0  0  0  0  0  0  0
   16.7758   22.0875   55.8815 C   0  0  0  0  0  0  0  0  0  0  0  0
   17.0843   22.4899   54.6082 C   0  0  0  0  0  0  0  0  0  0  0  0
   16.2884   22.1618   53.5409 C   0  0  0  0  0  0  0  0  0  0  0  0
   15.1476   21.3987   53.8065 C   0  0  0  0  0  0  0  0  0  0  0  0
   14.8470   21.0001   55.0873 C   0  0  0  0  0  0  0  0  0  0  0  0
   15.6440   21.3271   56.1647 C   0  0  0  0  0  0  0  0  0  0  0  0
   12.6288   20.5450   61.4987 C   0  0  0  0  0  0  0  0  0  0  0  0
   12.8200   21.4511   63.7952 C   0  0  0  0  0  0  0  0  0  0  0  0
   11.9078   21.1601   62.6434 C   0  0  0  0  0  0  0  0  0  0  0  0
   13.5814   22.7081   63.5880 C   0  0  0  0  0  0  0  0  0  0  0  0
   12.9691   21.8955   56.9499 O   0  0  0  0  0  0  0  0  0  0  0  0
   14.1882   22.8661   59.0102 O   0  0  0  0  0  0  0  0  0  0  0  0
   15.3287   20.9178   57.4541 O   0  0  0  0  0  0  0  0  0  0  0  0
   13.5533   19.7254   61.7233 O   0  0  0  0  0  0  0  0  0  0  0  0
   14.7491   22.8943   64.0213 O   0  0  0  0  0  0  0  0  0  0  0  0
   12.9141   23.7130   62.8612 O   0  0  0  0  0  0  0  0  0  0  0  0
   12.3124   20.8490   60.1465 N   0  0  0  0  0  0  0  0  0  0  0  0
   13.8601   21.4806   58.1154 P   0  0  1  0  0  5  0  0  0  0  0  0
  1 23  1  0
  1 22  1  0
  1  2  1  6
  2  3  1  0
  3  4  1  0
  4  5  1  0
 22 12  1  0
 12 19  2  0
 12 14  1  0
 14 13  1  0
 13 15  1  0
 15 20  2  0
 15 21  1  0
 23 16  2  0
 23 17  1  1
 23 18  1  0
 18 11  1  0
 11 10  1  0
 11  6  2  0
  6  7  1  0
  7  8  2  0
  8  9  1  0
  9 10  2  0
M  END
$$$$
