1a0q_ligand
     RDKit          3D

 23 23  0  0  0  0  0  0  0  0999 V2000
   13.2348   20.3540   59.3259 C   0  0  2  0  0  0  0  0  0  0  0  0
   12.3555   19.3818   58.5880 C   0  0  0  0  0  0  0  0  0  0  0  0
   11.7496   18.3369   59.4645 C   0  0  0  0  0  0  0  0  0  0  0  0
   11.5226   17.0978   58.6061 C   0  0  0  0  0  0  0  0  0  0  0  0
   10.9776   17.4285   57.2523 C   0  0  0  0  0  0  0  0  0  0  0  0
   14.8820   20.9035   55.0294 C   0  0  0  0  0  0  0  0  0  0  0  0
   15.1641   21.3666   53.7707 C   0  0  0  0  0  0  0  0  0  0  0  0
   16.2512   22.1665   53.5289 C   0  0  0  0  0  0  0  0  0  0  0  0
   17.0608   22.4901   54.6216 C   0  0  0  0  0  0  0  0  0  0  0  0
   16.7693   22.0205   55.8802 C   0  0  0  0  0  0  0  0  0  0  0  0
   15.6770   21.2155   56.1293 C   0  0  0  0  0  0  0  0  0  0  0  0
   12.8937   21.0584   61.6975 C   0  0  0  0  0  0  0  0  0  0  0  0
   11.1653   21.3330   63.4493 C   0  0  0  0  0  0  0  0  0  0  0  0
   12.3013   21.9707   62.7101 C   0  0  0  0  0  0  0  0  0  0  0  0
   11.6480   20.4014   64.4990 C   0  0  0  0  0  0  0  0  0  0  0  0
   13.1075   21.9743   57.1915 O   0  0  0  0  0  0  0  0  0  0  0  0
   14.6981   22.8430   59.0322 O   0  0  0  0  0  0  0  0  0  0  0  0
   15.3938   20.7477   57.4062 O   0  0  0  0  0  0  0  0  0  0  0  0
   13.7409   20.2050   62.0597 O   0  0  0  0  0  0  0  0  0  0  0  0
   12.8141   20.4311   64.9736 O   0  0  0  0  0  0  0  0  0  0  0  0
   10.7099   19.4539   64.9524 O   0  0  0  0  0  0  0  0  0  0  0  0
   12.5377   21.1120   60.3223 N   0  0  0  0  0  0  0  0  0  0  0  0
   14.1008   21.4854   58.2397 P   0  0  1  0  0  5  0  0  0  0  0  0
  1 23  1  0
  1 22  1  0
  1  2  1  6
  2  3  1  0
  3  4  1  0
  4  5  1  0
 22 12  1  0
 12 19  2  0
 12 14  1  0
 14 13  1  0
 13 15  1  0
 15 20  2  0
 15 21  1  0
 23 16  2  0
 23 17  1  1
 23 18  1  0
 18 11  1  0
 11 10  1  0
 11  6  2  0
  6  7  1  0
  7  8  2  0
  8  9  1  0
  9 10  2  0
M  END
$$$$
