1a0q_ligand
     RDKit          3D

 23 23  0  0  0  0  0  0  0  0999 V2000
   13.0453   20.3467   59.2037 C   0  0  2  0  0  0  0  0  0  0  0  0
   12.1715   19.4922   58.3266 C   0  0  0  0  0  0  0  0  0  0  0  0
   11.3551   18.4968   59.0815 C   0  0  0  0  0  0  0  0  0  0  0  0
   11.5348   17.1469   58.3966 C   0  0  0  0  0  0  0  0  0  0  0  0
   11.4475   17.2427   56.9058 C   0  0  0  0  0  0  0  0  0  0  0  0
   16.8187   22.0991   55.9977 C   0  0  0  0  0  0  0  0  0  0  0  0
   17.1214   22.5076   54.7249 C   0  0  0  0  0  0  0  0  0  0  0  0
   16.3366   22.1599   53.6556 C   0  0  0  0  0  0  0  0  0  0  0  0
   15.2133   21.3703   53.9186 C   0  0  0  0  0  0  0  0  0  0  0  0
   14.9184   20.9658   55.1988 C   0  0  0  0  0  0  0  0  0  0  0  0
   15.7043   21.3125   56.2782 C   0  0  0  0  0  0  0  0  0  0  0  0
   12.5636   20.7457   61.6215 C   0  0  0  0  0  0  0  0  0  0  0  0
   12.5992   21.5033   63.9786 C   0  0  0  0  0  0  0  0  0  0  0  0
   11.8092   21.4219   62.7087 C   0  0  0  0  0  0  0  0  0  0  0  0
   13.3693   22.7690   64.0654 C   0  0  0  0  0  0  0  0  0  0  0  0
   13.1132   22.0826   57.1593 O   0  0  0  0  0  0  0  0  0  0  0  0
   14.4606   22.8804   59.2137 O   0  0  0  0  0  0  0  0  0  0  0  0
   15.3949   20.8969   57.5671 O   0  0  0  0  0  0  0  0  0  0  0  0
   13.4452   19.9018   61.9176 O   0  0  0  0  0  0  0  0  0  0  0  0
   14.4023   22.9086   64.7720 O   0  0  0  0  0  0  0  0  0  0  0  0
   12.8734   23.8391   63.2957 O   0  0  0  0  0  0  0  0  0  0  0  0
   12.3265   21.0171   60.2463 N   0  0  0  0  0  0  0  0  0  0  0  0
   13.9956   21.5571   58.2861 P   0  0  1  0  0  5  0  0  0  0  0  0
  1 23  1  0
  1 22  1  0
  1  2  1  6
  2  3  1  0
  3  4  1  0
  4  5  1  0
 22 12  1  0
 12 19  2  0
 12 14  1  0
 14 13  1  0
 13 15  1  0
 15 20  2  0
 15 21  1  0
 23 16  2  0
 23 17  1  1
 23 18  1  0
 18 11  1  0
 11 10  1  0
 11  6  2  0
  6  7  1  0
  7  8  2  0
  8  9  1  0
  9 10  2  0
M  END
$$$$
