1a0q_ligand
     RDKit          3D

 23 23  0  0  0  0  0  0  0  0999 V2000
   13.3087   20.5471   59.2263 C   0  0  2  0  0  0  0  0  0  0  0  0
   12.4657   19.6411   58.3711 C   0  0  0  0  0  0  0  0  0  0  0  0
   11.6153   18.6976   59.1546 C   0  0  0  0  0  0  0  0  0  0  0  0
   11.6497   17.3519   58.4394 C   0  0  0  0  0  0  0  0  0  0  0  0
   11.4718   17.4830   56.9594 C   0  0  0  0  0  0  0  0  0  0  0  0
   14.7957   21.1620   55.2664 C   0  0  0  0  0  0  0  0  0  0  0  0
   14.9609   21.4036   53.9275 C   0  0  0  0  0  0  0  0  0  0  0  0
   16.0881   22.0169   53.4443 C   0  0  0  0  0  0  0  0  0  0  0  0
   17.0630   22.3857   54.3759 C   0  0  0  0  0  0  0  0  0  0  0  0
   16.8877   22.1389   55.7168 C   0  0  0  0  0  0  0  0  0  0  0  0
   15.7559   21.5224   56.2086 C   0  0  0  0  0  0  0  0  0  0  0  0
   12.8982   20.9183   61.6616 C   0  0  0  0  0  0  0  0  0  0  0  0
   11.1516   20.8878   63.4165 C   0  0  0  0  0  0  0  0  0  0  0  0
   12.2576   21.6672   62.7739 C   0  0  0  0  0  0  0  0  0  0  0  0
   11.6740   19.8824   64.3751 C   0  0  0  0  0  0  0  0  0  0  0  0
   13.2132   22.2582   57.1621 O   0  0  0  0  0  0  0  0  0  0  0  0
   14.4999   23.1935   59.1975 O   0  0  0  0  0  0  0  0  0  0  0  0
   15.5914   21.2788   57.5662 O   0  0  0  0  0  0  0  0  0  0  0  0
   13.7520   20.0361   61.9257 O   0  0  0  0  0  0  0  0  0  0  0  0
   12.7015   20.0614   65.0810 O   0  0  0  0  0  0  0  0  0  0  0  0
   10.9425   18.6820   64.4596 O   0  0  0  0  0  0  0  0  0  0  0  0
   12.5814   21.1614   60.2972 N   0  0  0  0  0  0  0  0  0  0  0  0
   14.1450   21.8241   58.2882 P   0  0  1  0  0  5  0  0  0  0  0  0
  1 23  1  0
  1 22  1  0
  1  2  1  6
  2  3  1  0
  3  4  1  0
  4  5  1  0
 22 12  1  0
 12 19  2  0
 12 14  1  0
 14 13  1  0
 13 15  1  0
 15 20  2  0
 15 21  1  0
 23 16  2  0
 23 17  1  1
 23 18  1  0
 18 11  1  0
 11 10  1  0
 11  6  2  0
  6  7  1  0
  7  8  2  0
  8  9  1  0
  9 10  2  0
M  END
$$$$
