1a0q_ligand
     RDKit          3D

 23 23  0  0  0  0  0  0  0  0999 V2000
   13.1882   20.5785   59.3438 C   0  0  2  0  0  0  0  0  0  0  0  0
   12.2991   19.7267   58.4795 C   0  0  0  0  0  0  0  0  0  0  0  0
   11.5262   18.7021   59.2410 C   0  0  0  0  0  0  0  0  0  0  0  0
   10.8084   17.8235   58.2230 C   0  0  0  0  0  0  0  0  0  0  0  0
   11.7078   16.7913   57.6191 C   0  0  0  0  0  0  0  0  0  0  0  0
   14.7395   20.9340   55.3941 C   0  0  0  0  0  0  0  0  0  0  0  0
   14.8929   21.1372   54.0474 C   0  0  0  0  0  0  0  0  0  0  0  0
   15.9672   21.8253   53.5448 C   0  0  0  0  0  0  0  0  0  0  0  0
   16.9007   22.3113   54.4650 C   0  0  0  0  0  0  0  0  0  0  0  0
   16.7377   22.1021   55.8138 C   0  0  0  0  0  0  0  0  0  0  0  0
   15.6590   21.4107   56.3250 C   0  0  0  0  0  0  0  0  0  0  0  0
   12.8761   21.0390   61.7785 C   0  0  0  0  0  0  0  0  0  0  0  0
   12.0221   20.8269   64.0930 C   0  0  0  0  0  0  0  0  0  0  0  0
   12.1774   21.7191   62.8999 C   0  0  0  0  0  0  0  0  0  0  0  0
   11.0201   19.7587   63.8524 C   0  0  0  0  0  0  0  0  0  0  0  0
   13.1832   22.3138   57.2979 O   0  0  0  0  0  0  0  0  0  0  0  0
   14.5172   23.1585   59.3423 O   0  0  0  0  0  0  0  0  0  0  0  0
   15.5064   21.2063   57.6905 O   0  0  0  0  0  0  0  0  0  0  0  0
   13.8410   20.2751   62.0282 O   0  0  0  0  0  0  0  0  0  0  0  0
   10.3122   19.6892   62.8132 O   0  0  0  0  0  0  0  0  0  0  0  0
   10.8957   18.7974   64.8741 O   0  0  0  0  0  0  0  0  0  0  0  0
   12.4937   21.2190   60.4211 N   0  0  0  0  0  0  0  0  0  0  0  0
   14.0907   21.8194   58.4188 P   0  0  1  0  0  5  0  0  0  0  0  0
  1 23  1  0
  1 22  1  0
  1  2  1  6
  2  3  1  0
  3  4  1  0
  4  5  1  0
 22 12  1  0
 12 19  2  0
 12 14  1  0
 14 13  1  0
 13 15  1  0
 15 20  2  0
 15 21  1  0
 23 16  2  0
 23 17  1  1
 23 18  1  0
 18 11  1  0
 11 10  1  0
 11  6  2  0
  6  7  1  0
  7  8  2  0
  8  9  1  0
  9 10  2  0
M  END
$$$$
