1a0q_ligand
     RDKit          3D

 23 23  0  0  0  0  0  0  0  0999 V2000
   13.1626   20.4909   59.2992 C   0  0  2  0  0  0  0  0  0  0  0  0
   12.1713   19.6081   58.5916 C   0  0  0  0  0  0  0  0  0  0  0  0
   11.9677   18.2855   59.2524 C   0  0  0  0  0  0  0  0  0  0  0  0
   11.6433   17.2747   58.1584 C   0  0  0  0  0  0  0  0  0  0  0  0
   10.4705   17.6862   57.3253 C   0  0  0  0  0  0  0  0  0  0  0  0
   16.7130   22.0664   55.8599 C   0  0  0  0  0  0  0  0  0  0  0  0
   17.0604   22.6378   54.6636 C   0  0  0  0  0  0  0  0  0  0  0  0
   16.2753   22.4973   53.5481 C   0  0  0  0  0  0  0  0  0  0  0  0
   15.1043   21.7457   53.6827 C   0  0  0  0  0  0  0  0  0  0  0  0
   14.7648   21.1766   54.8871 C   0  0  0  0  0  0  0  0  0  0  0  0
   15.5507   21.3147   56.0124 C   0  0  0  0  0  0  0  0  0  0  0  0
   12.9796   21.1547   61.6998 C   0  0  0  0  0  0  0  0  0  0  0  0
   11.1776   21.3107   63.3909 C   0  0  0  0  0  0  0  0  0  0  0  0
   12.3793   21.9704   62.7873 C   0  0  0  0  0  0  0  0  0  0  0  0
   11.5607   20.2556   64.3618 C   0  0  0  0  0  0  0  0  0  0  0  0
   13.0534   22.2133   57.2452 O   0  0  0  0  0  0  0  0  0  0  0  0
   14.8709   22.8152   58.9793 O   0  0  0  0  0  0  0  0  0  0  0  0
   15.1959   20.7344   57.2236 O   0  0  0  0  0  0  0  0  0  0  0  0
   13.8735   20.3185   61.9803 O   0  0  0  0  0  0  0  0  0  0  0  0
   12.7468   20.0440   64.7283 O   0  0  0  0  0  0  0  0  0  0  0  0
   10.5009   19.4788   64.8688 O   0  0  0  0  0  0  0  0  0  0  0  0
   12.5800   21.2829   60.3416 N   0  0  0  0  0  0  0  0  0  0  0  0
   14.0638   21.5699   58.1884 P   0  0  1  0  0  5  0  0  0  0  0  0
  1 23  1  0
  1 22  1  0
  1  2  1  6
  2  3  1  0
  3  4  1  0
  4  5  1  0
 22 12  1  0
 12 19  2  0
 12 14  1  0
 14 13  1  0
 13 15  1  0
 15 20  2  0
 15 21  1  0
 23 16  2  0
 23 17  1  1
 23 18  1  0
 18 11  1  0
 11 10  1  0
 11  6  2  0
  6  7  1  0
  7  8  2  0
  8  9  1  0
  9 10  2  0
M  END
$$$$
