1a0q_ligand
     RDKit          3D

 23 23  0  0  0  0  0  0  0  0999 V2000
   13.0440   20.5805   59.1719 C   0  0  2  0  0  0  0  0  0  0  0  0
   12.1876   19.8026   58.2104 C   0  0  0  0  0  0  0  0  0  0  0  0
   11.5092   18.6259   58.8288 C   0  0  0  0  0  0  0  0  0  0  0  0
   10.8325   17.8481   57.7060 C   0  0  0  0  0  0  0  0  0  0  0  0
   11.6471   16.6812   57.2434 C   0  0  0  0  0  0  0  0  0  0  0  0
   16.8411   22.2382   55.9411 C   0  0  0  0  0  0  0  0  0  0  0  0
   17.0633   22.4186   54.6008 C   0  0  0  0  0  0  0  0  0  0  0  0
   16.1524   22.0071   53.6621 C   0  0  0  0  0  0  0  0  0  0  0  0
   14.9860   21.3950   54.1304 C   0  0  0  0  0  0  0  0  0  0  0  0
   14.7726   21.2187   55.4768 C   0  0  0  0  0  0  0  0  0  0  0  0
   15.6854   21.6307   56.4255 C   0  0  0  0  0  0  0  0  0  0  0  0
   12.5245   20.6131   61.6144 C   0  0  0  0  0  0  0  0  0  0  0  0
   12.2350   20.5268   64.0720 C   0  0  0  0  0  0  0  0  0  0  0  0
   11.8201   21.1842   62.7917 C   0  0  0  0  0  0  0  0  0  0  0  0
   13.4418   21.1673   64.6517 C   0  0  0  0  0  0  0  0  0  0  0  0
   13.1069   22.4067   57.2076 O   0  0  0  0  0  0  0  0  0  0  0  0
   14.1724   23.2440   59.4068 O   0  0  0  0  0  0  0  0  0  0  0  0
   15.4573   21.4464   57.7834 O   0  0  0  0  0  0  0  0  0  0  0  0
   13.3339   19.6676   61.7812 O   0  0  0  0  0  0  0  0  0  0  0  0
   14.1432   20.6412   65.5556 O   0  0  0  0  0  0  0  0  0  0  0  0
   13.7745   22.4306   64.1256 O   0  0  0  0  0  0  0  0  0  0  0  0
   12.3182   21.0975   60.2939 N   0  0  0  0  0  0  0  0  0  0  0  0
   13.9368   21.9240   58.3920 P   0  0  1  0  0  5  0  0  0  0  0  0
  1 23  1  0
  1 22  1  0
  1  2  1  6
  2  3  1  0
  3  4  1  0
  4  5  1  0
 22 12  1  0
 12 19  2  0
 12 14  1  0
 14 13  1  0
 13 15  1  0
 15 20  2  0
 15 21  1  0
 23 16  2  0
 23 17  1  1
 23 18  1  0
 18 11  1  0
 11 10  1  0
 11  6  2  0
  6  7  1  0
  7  8  2  0
  8  9  1  0
  9 10  2  0
M  END
$$$$
