1a0q_ligand
     RDKit          3D

 23 23  0  0  0  0  0  0  0  0999 V2000
   13.0835   20.6919   59.2022 C   0  0  2  0  0  0  0  0  0  0  0  0
   12.0581   19.9938   58.3511 C   0  0  0  0  0  0  0  0  0  0  0  0
   11.6012   18.6888   58.9125 C   0  0  0  0  0  0  0  0  0  0  0  0
   11.0282   17.8725   57.7597 C   0  0  0  0  0  0  0  0  0  0  0  0
   11.8952   16.7095   57.3924 C   0  0  0  0  0  0  0  0  0  0  0  0
   14.9370   20.8937   55.3156 C   0  0  0  0  0  0  0  0  0  0  0  0
   15.1954   21.0883   53.9838 C   0  0  0  0  0  0  0  0  0  0  0  0
   16.2911   21.7974   53.5630 C   0  0  0  0  0  0  0  0  0  0  0  0
   17.1345   22.3141   54.5510 C   0  0  0  0  0  0  0  0  0  0  0  0
   16.8665   22.1134   55.8842 C   0  0  0  0  0  0  0  0  0  0  0  0
   15.7658   21.4009   56.3132 C   0  0  0  0  0  0  0  0  0  0  0  0
   12.9313   21.0157   61.6738 C   0  0  0  0  0  0  0  0  0  0  0  0
   11.1753   21.2388   63.4052 C   0  0  0  0  0  0  0  0  0  0  0  0
   12.4630   21.7767   62.8612 C   0  0  0  0  0  0  0  0  0  0  0  0
   11.3922   20.0195   64.2233 C   0  0  0  0  0  0  0  0  0  0  0  0
   13.2385   22.3532   57.1013 O   0  0  0  0  0  0  0  0  0  0  0  0
   14.4764   23.2380   59.1888 O   0  0  0  0  0  0  0  0  0  0  0  0
   15.5066   21.2054   57.6638 O   0  0  0  0  0  0  0  0  0  0  0  0
   13.7145   20.0471   61.8340 O   0  0  0  0  0  0  0  0  0  0  0  0
   12.5200   19.6615   64.6541 O   0  0  0  0  0  0  0  0  0  0  0  0
   10.2401   19.2592   64.5027 O   0  0  0  0  0  0  0  0  0  0  0  0
   12.5256   21.3418   60.3509 N   0  0  0  0  0  0  0  0  0  0  0  0
   14.0683   21.8775   58.2886 P   0  0  1  0  0  5  0  0  0  0  0  0
  1 23  1  0
  1 22  1  0
  1  2  1  6
  2  3  1  0
  3  4  1  0
  4  5  1  0
 22 12  1  0
 12 19  2  0
 12 14  1  0
 14 13  1  0
 13 15  1  0
 15 20  2  0
 15 21  1  0
 23 16  2  0
 23 17  1  1
 23 18  1  0
 18 11  1  0
 11 10  1  0
 11  6  2  0
  6  7  1  0
  7  8  2  0
  8  9  1  0
  9 10  2  0
M  END
$$$$
