1a0q_ligand
     RDKit          3D

 23 23  0  0  0  0  0  0  0  0999 V2000
   13.2697   20.6264   59.2370 C   0  0  2  0  0  0  0  0  0  0  0  0
   12.3414   19.7764   58.4131 C   0  0  0  0  0  0  0  0  0  0  0  0
   11.6220   18.7349   59.2036 C   0  0  0  0  0  0  0  0  0  0  0  0
   10.9375   17.8018   58.2116 C   0  0  0  0  0  0  0  0  0  0  0  0
   11.9138   17.0434   57.3684 C   0  0  0  0  0  0  0  0  0  0  0  0
   14.8965   20.9913   55.3066 C   0  0  0  0  0  0  0  0  0  0  0  0
   15.0859   21.1649   53.9604 C   0  0  0  0  0  0  0  0  0  0  0  0
   16.1596   21.8646   53.4726 C   0  0  0  0  0  0  0  0  0  0  0  0
   17.0540   22.3940   54.4075 C   0  0  0  0  0  0  0  0  0  0  0  0
   16.8551   22.2143   55.7557 C   0  0  0  0  0  0  0  0  0  0  0  0
   15.7768   21.5114   56.2520 C   0  0  0  0  0  0  0  0  0  0  0  0
   12.9553   20.9115   61.6980 C   0  0  0  0  0  0  0  0  0  0  0  0
   11.1834   21.1027   63.4171 C   0  0  0  0  0  0  0  0  0  0  0  0
   12.4470   21.6841   62.8612 C   0  0  0  0  0  0  0  0  0  0  0  0
   11.4562   19.9439   64.3033 C   0  0  0  0  0  0  0  0  0  0  0  0
   13.2068   22.2607   57.1103 O   0  0  0  0  0  0  0  0  0  0  0  0
   14.4186   23.2900   59.1462 O   0  0  0  0  0  0  0  0  0  0  0  0
   15.5876   21.3371   57.6171 O   0  0  0  0  0  0  0  0  0  0  0  0
   13.7004   19.9203   61.8964 O   0  0  0  0  0  0  0  0  0  0  0  0
   10.7186   18.9250   64.3643 O   0  0  0  0  0  0  0  0  0  0  0  0
   12.6156   20.0421   65.0969 O   0  0  0  0  0  0  0  0  0  0  0  0
   12.6298   21.2511   60.3565 N   0  0  0  0  0  0  0  0  0  0  0  0
   14.1123   21.8831   58.2774 P   0  0  1  0  0  5  0  0  0  0  0  0
  1 23  1  0
  1 22  1  0
  1  2  1  6
  2  3  1  0
  3  4  1  0
  4  5  1  0
 22 12  1  0
 12 19  2  0
 12 14  1  0
 14 13  1  0
 13 15  1  0
 15 20  2  0
 15 21  1  0
 23 16  2  0
 23 17  1  1
 23 18  1  0
 18 11  1  0
 11 10  1  0
 11  6  2  0
  6  7  1  0
  7  8  2  0
  8  9  1  0
  9 10  2  0
M  END
$$$$
