1a0q_ligand
     RDKit          3D

 23 23  0  0  0  0  0  0  0  0999 V2000
   12.9418   20.6716   59.3304 C   0  0  2  0  0  0  0  0  0  0  0  0
   11.7464   20.0749   58.6392 C   0  0  0  0  0  0  0  0  0  0  0  0
   11.4997   18.6465   58.9942 C   0  0  0  0  0  0  0  0  0  0  0  0
   11.6241   17.8305   57.7128 C   0  0  0  0  0  0  0  0  0  0  0  0
   12.2199   16.4782   57.9482 C   0  0  0  0  0  0  0  0  0  0  0  0
   16.7351   22.0141   56.0202 C   0  0  0  0  0  0  0  0  0  0  0  0
   17.1408   22.5215   54.8134 C   0  0  0  0  0  0  0  0  0  0  0  0
   16.3744   22.3842   53.6847 C   0  0  0  0  0  0  0  0  0  0  0  0
   15.1601   21.7041   53.8170 C   0  0  0  0  0  0  0  0  0  0  0  0
   14.7622   21.1990   55.0319 C   0  0  0  0  0  0  0  0  0  0  0  0
   15.5292   21.3341   56.1705 C   0  0  0  0  0  0  0  0  0  0  0  0
   13.0459   21.0264   61.8003 C   0  0  0  0  0  0  0  0  0  0  0  0
   11.4853   21.6955   63.6025 C   0  0  0  0  0  0  0  0  0  0  0  0
   12.8453   21.8775   63.0018 C   0  0  0  0  0  0  0  0  0  0  0  0
   11.2950   20.3186   64.1226 C   0  0  0  0  0  0  0  0  0  0  0  0
   13.0051   22.3345   57.2261 O   0  0  0  0  0  0  0  0  0  0  0  0
   14.7123   22.9555   59.0625 O   0  0  0  0  0  0  0  0  0  0  0  0
   15.1152   20.8187   57.3923 O   0  0  0  0  0  0  0  0  0  0  0  0
   13.6226   19.9174   61.9216 O   0  0  0  0  0  0  0  0  0  0  0  0
   10.6701   19.4195   63.5005 O   0  0  0  0  0  0  0  0  0  0  0  0
   11.8647   20.0585   65.3840 O   0  0  0  0  0  0  0  0  0  0  0  0
   12.6076   21.4192   60.5062 N   0  0  0  0  0  0  0  0  0  0  0  0
   13.9367   21.7017   58.2537 P   0  0  1  0  0  5  0  0  0  0  0  0
  1 23  1  0
  1 22  1  0
  1  2  1  6
  2  3  1  0
  3  4  1  0
  4  5  1  0
 22 12  1  0
 12 19  2  0
 12 14  1  0
 14 13  1  0
 13 15  1  0
 15 20  2  0
 15 21  1  0
 23 16  2  0
 23 17  1  1
 23 18  1  0
 18 11  1  0
 11 10  1  0
 11  6  2  0
  6  7  1  0
  7  8  2  0
  8  9  1  0
  9 10  2  0
M  END
$$$$
