1a0q_ligand
     RDKit          3D

 23 23  0  0  0  0  0  0  0  0999 V2000
   13.1190   20.4683   59.1554 C   0  0  2  0  0  0  0  0  0  0  0  0
   12.2379   19.6098   58.2897 C   0  0  0  0  0  0  0  0  0  0  0  0
   11.3961   18.6474   59.0592 C   0  0  0  0  0  0  0  0  0  0  0  0
   11.0694   17.4838   58.1303 C   0  0  0  0  0  0  0  0  0  0  0  0
   11.9368   17.4607   56.9112 C   0  0  0  0  0  0  0  0  0  0  0  0
   16.9338   22.0984   55.9015 C   0  0  0  0  0  0  0  0  0  0  0  0
   17.2209   22.4087   54.5978 C   0  0  0  0  0  0  0  0  0  0  0  0
   16.3917   22.0322   53.5727 C   0  0  0  0  0  0  0  0  0  0  0  0
   15.2396   21.3176   53.9138 C   0  0  0  0  0  0  0  0  0  0  0  0
   14.9606   21.0113   55.2245 C   0  0  0  0  0  0  0  0  0  0  0  0
   15.7911   21.3875   56.2598 C   0  0  0  0  0  0  0  0  0  0  0  0
   12.6133   20.7955   61.5791 C   0  0  0  0  0  0  0  0  0  0  0  0
   11.7196   20.6620   63.8844 C   0  0  0  0  0  0  0  0  0  0  0  0
   11.9465   21.5304   62.6853 C   0  0  0  0  0  0  0  0  0  0  0  0
   12.8846   20.6809   64.8038 C   0  0  0  0  0  0  0  0  0  0  0  0
   13.1793   22.1328   57.0522 O   0  0  0  0  0  0  0  0  0  0  0  0
   14.4148   23.0650   59.1204 O   0  0  0  0  0  0  0  0  0  0  0  0
   15.4973   21.0715   57.5801 O   0  0  0  0  0  0  0  0  0  0  0  0
   13.3850   19.8429   61.8512 O   0  0  0  0  0  0  0  0  0  0  0  0
   13.7997   21.5443   64.7505 O   0  0  0  0  0  0  0  0  0  0  0  0
   12.9178   19.6550   65.7680 O   0  0  0  0  0  0  0  0  0  0  0  0
   12.4120   21.1294   60.2120 N   0  0  0  0  0  0  0  0  0  0  0  0
   14.0445   21.6895   58.2267 P   0  0  1  0  0  5  0  0  0  0  0  0
  1 23  1  0
  1 22  1  0
  1  2  1  6
  2  3  1  0
  3  4  1  0
  4  5  1  0
 22 12  1  0
 12 19  2  0
 12 14  1  0
 14 13  1  0
 13 15  1  0
 15 20  2  0
 15 21  1  0
 23 16  2  0
 23 17  1  1
 23 18  1  0
 18 11  1  0
 11 10  1  0
 11  6  2  0
  6  7  1  0
  7  8  2  0
  8  9  1  0
  9 10  2  0
M  END
$$$$
