1a0q_ligand
     RDKit          3D

 23 23  0  0  0  0  0  0  0  0999 V2000
   12.8536   20.5036   59.1199 C   0  0  2  0  0  0  0  0  0  0  0  0
   11.8361   19.8014   58.2629 C   0  0  0  0  0  0  0  0  0  0  0  0
   11.4194   18.4710   58.7953 C   0  0  0  0  0  0  0  0  0  0  0  0
   10.9466   17.6344   57.6120 C   0  0  0  0  0  0  0  0  0  0  0  0
   11.8961   16.5282   57.2744 C   0  0  0  0  0  0  0  0  0  0  0  0
   16.8251   22.1952   56.0878 C   0  0  0  0  0  0  0  0  0  0  0  0
   17.1860   22.4777   54.7961 C   0  0  0  0  0  0  0  0  0  0  0  0
   16.4316   22.0530   53.7327 C   0  0  0  0  0  0  0  0  0  0  0  0
   15.2776   21.3190   54.0218 C   0  0  0  0  0  0  0  0  0  0  0  0
   14.9243   21.0409   55.3209 C   0  0  0  0  0  0  0  0  0  0  0  0
   15.6793   21.4655   56.3945 C   0  0  0  0  0  0  0  0  0  0  0  0
   12.6613   20.6829   61.6034 C   0  0  0  0  0  0  0  0  0  0  0  0
   13.0178   21.1583   64.0072 C   0  0  0  0  0  0  0  0  0  0  0  0
   12.1079   21.3174   62.8281 C   0  0  0  0  0  0  0  0  0  0  0  0
   14.1434   22.1248   63.9659 C   0  0  0  0  0  0  0  0  0  0  0  0
   12.9933   22.1219   56.9847 O   0  0  0  0  0  0  0  0  0  0  0  0
   14.0354   23.1543   59.1111 O   0  0  0  0  0  0  0  0  0  0  0  0
   15.3109   21.1776   57.7026 O   0  0  0  0  0  0  0  0  0  0  0  0
   13.4836   19.7407   61.7171 O   0  0  0  0  0  0  0  0  0  0  0  0
   14.0872   23.2342   63.3726 O   0  0  0  0  0  0  0  0  0  0  0  0
   15.3129   21.7289   64.6433 O   0  0  0  0  0  0  0  0  0  0  0  0
   12.2947   21.1025   60.2955 N   0  0  0  0  0  0  0  0  0  0  0  0
   13.7900   21.7440   58.2286 P   0  0  1  0  0  5  0  0  0  0  0  0
  1 23  1  0
  1 22  1  0
  1  2  1  6
  2  3  1  0
  3  4  1  0
  4  5  1  0
 22 12  1  0
 12 19  2  0
 12 14  1  0
 14 13  1  0
 13 15  1  0
 15 20  2  0
 15 21  1  0
 23 16  2  0
 23 17  1  1
 23 18  1  0
 18 11  1  0
 11 10  1  0
 11  6  2  0
  6  7  1  0
  7  8  2  0
  8  9  1  0
  9 10  2  0
M  END
$$$$
