1a0q_ligand
     RDKit          3D

 23 23  0  0  0  0  0  0  0  0999 V2000
   13.2289   20.6568   59.2351 C   0  0  2  0  0  0  0  0  0  0  0  0
   12.2146   19.9077   58.4146 C   0  0  0  0  0  0  0  0  0  0  0  0
   11.7728   18.6238   59.0338 C   0  0  0  0  0  0  0  0  0  0  0  0
   11.0517   17.8226   57.9561 C   0  0  0  0  0  0  0  0  0  0  0  0
   11.8951   16.7190   57.3994 C   0  0  0  0  0  0  0  0  0  0  0  0
   16.8551   22.1728   55.7438 C   0  0  0  0  0  0  0  0  0  0  0  0
   17.0394   22.3538   54.3979 C   0  0  0  0  0  0  0  0  0  0  0  0
   16.1481   21.8602   53.4802 C   0  0  0  0  0  0  0  0  0  0  0  0
   15.0420   21.1636   53.9759 C   0  0  0  0  0  0  0  0  0  0  0  0
   14.8662   20.9874   55.3278 C   0  0  0  0  0  0  0  0  0  0  0  0
   15.7596   21.4817   56.2555 C   0  0  0  0  0  0  0  0  0  0  0  0
   13.1732   21.0077   61.7071 C   0  0  0  0  0  0  0  0  0  0  0  0
   11.3078   21.3387   63.3015 C   0  0  0  0  0  0  0  0  0  0  0  0
   12.6960   21.7411   62.9083 C   0  0  0  0  0  0  0  0  0  0  0  0
   11.3075   20.1070   64.1295 C   0  0  0  0  0  0  0  0  0  0  0  0
   13.2293   22.3299   57.1379 O   0  0  0  0  0  0  0  0  0  0  0  0
   14.4905   23.2700   59.1870 O   0  0  0  0  0  0  0  0  0  0  0  0
   15.5700   21.2965   57.6191 O   0  0  0  0  0  0  0  0  0  0  0  0
   14.0487   20.1171   61.8380 O   0  0  0  0  0  0  0  0  0  0  0  0
   10.2585   19.5106   64.4900 O   0  0  0  0  0  0  0  0  0  0  0  0
   12.5759   19.6230   64.5039 O   0  0  0  0  0  0  0  0  0  0  0  0
   12.6747   21.2752   60.4028 N   0  0  0  0  0  0  0  0  0  0  0  0
   14.1215   21.8933   58.2946 P   0  0  1  0  0  5  0  0  0  0  0  0
  1 23  1  0
  1 22  1  0
  1  2  1  6
  2  3  1  0
  3  4  1  0
  4  5  1  0
 22 12  1  0
 12 19  2  0
 12 14  1  0
 14 13  1  0
 13 15  1  0
 15 20  2  0
 15 21  1  0
 23 16  2  0
 23 17  1  1
 23 18  1  0
 18 11  1  0
 11 10  1  0
 11  6  2  0
  6  7  1  0
  7  8  2  0
  8  9  1  0
  9 10  2  0
M  END
$$$$
