1a0q_ligand
     RDKit          3D

 23 23  0  0  0  0  0  0  0  0999 V2000
   13.1580   20.3919   59.2359 C   0  0  2  0  0  0  0  0  0  0  0  0
   12.4168   19.5030   58.2750 C   0  0  0  0  0  0  0  0  0  0  0  0
   11.3734   18.6564   58.9245 C   0  0  0  0  0  0  0  0  0  0  0  0
   11.4080   17.2911   58.2474 C   0  0  0  0  0  0  0  0  0  0  0  0
   11.8314   17.3710   56.8144 C   0  0  0  0  0  0  0  0  0  0  0  0
   16.8832   22.0952   55.9384 C   0  0  0  0  0  0  0  0  0  0  0  0
   17.0803   22.2677   54.5931 C   0  0  0  0  0  0  0  0  0  0  0  0
   16.1278   21.9017   53.6771 C   0  0  0  0  0  0  0  0  0  0  0  0
   14.9458   21.3445   54.1738 C   0  0  0  0  0  0  0  0  0  0  0  0
   14.7578   21.1757   55.5250 C   0  0  0  0  0  0  0  0  0  0  0  0
   15.7125   21.5420   56.4510 C   0  0  0  0  0  0  0  0  0  0  0  0
   12.5901   20.5753   61.6609 C   0  0  0  0  0  0  0  0  0  0  0  0
   12.2364   20.6400   64.1108 C   0  0  0  0  0  0  0  0  0  0  0  0
   11.7704   21.1244   62.7722 C   0  0  0  0  0  0  0  0  0  0  0  0
   13.1561   21.6101   64.7555 C   0  0  0  0  0  0  0  0  0  0  0  0
   13.1077   22.1993   57.2539 O   0  0  0  0  0  0  0  0  0  0  0  0
   14.1510   23.1118   59.4338 O   0  0  0  0  0  0  0  0  0  0  0  0
   15.5098   21.3659   57.8139 O   0  0  0  0  0  0  0  0  0  0  0  0
   13.5428   19.8007   61.9242 O   0  0  0  0  0  0  0  0  0  0  0  0
   13.9095   21.3191   65.7217 O   0  0  0  0  0  0  0  0  0  0  0  0
   13.1450   22.9117   64.2177 O   0  0  0  0  0  0  0  0  0  0  0  0
   12.3380   20.8936   60.2985 N   0  0  0  0  0  0  0  0  0  0  0  0
   13.9730   21.7714   58.4340 P   0  0  1  0  0  5  0  0  0  0  0  0
  1 23  1  0
  1 22  1  0
  1  2  1  6
  2  3  1  0
  3  4  1  0
  4  5  1  0
 22 12  1  0
 12 19  2  0
 12 14  1  0
 14 13  1  0
 13 15  1  0
 15 20  2  0
 15 21  1  0
 23 16  2  0
 23 17  1  1
 23 18  1  0
 18 11  1  0
 11 10  1  0
 11  6  2  0
  6  7  1  0
  7  8  2  0
  8  9  1  0
  9 10  2  0
M  END
$$$$
