1a0q_ligand
     RDKit          3D

 23 23  0  0  0  0  0  0  0  0999 V2000
   13.1923   20.5716   59.1934 C   0  0  2  0  0  0  0  0  0  0  0  0
   12.2905   19.7320   58.3304 C   0  0  0  0  0  0  0  0  0  0  0  0
   11.5733   18.6587   59.0791 C   0  0  0  0  0  0  0  0  0  0  0  0
   10.9293   17.7373   58.0496 C   0  0  0  0  0  0  0  0  0  0  0  0
   11.9387   16.9868   57.2391 C   0  0  0  0  0  0  0  0  0  0  0  0
   16.8850   22.2059   55.7999 C   0  0  0  0  0  0  0  0  0  0  0  0
   17.0968   22.4478   54.4676 C   0  0  0  0  0  0  0  0  0  0  0  0
   16.1938   22.0507   53.5152 C   0  0  0  0  0  0  0  0  0  0  0  0
   15.0465   21.3878   53.9609 C   0  0  0  0  0  0  0  0  0  0  0  0
   14.8433   21.1499   55.2995 C   0  0  0  0  0  0  0  0  0  0  0  0
   15.7483   21.5472   56.2619 C   0  0  0  0  0  0  0  0  0  0  0  0
   12.8559   20.8687   61.6501 C   0  0  0  0  0  0  0  0  0  0  0  0
   11.2374   20.9459   63.5225 C   0  0  0  0  0  0  0  0  0  0  0  0
   12.3412   21.6560   62.8006 C   0  0  0  0  0  0  0  0  0  0  0  0
   11.7575   19.8511   64.3790 C   0  0  0  0  0  0  0  0  0  0  0  0
   13.1656   22.2696   57.1165 O   0  0  0  0  0  0  0  0  0  0  0  0
   14.3758   23.2216   59.1906 O   0  0  0  0  0  0  0  0  0  0  0  0
   15.5307   21.3005   57.6115 O   0  0  0  0  0  0  0  0  0  0  0  0
   13.6173   19.8932   61.8641 O   0  0  0  0  0  0  0  0  0  0  0  0
   12.8467   19.9164   65.0077 O   0  0  0  0  0  0  0  0  0  0  0  0
   10.9490   18.7006   64.4568 O   0  0  0  0  0  0  0  0  0  0  0  0
   12.5189   21.1770   60.3039 N   0  0  0  0  0  0  0  0  0  0  0  0
   14.0578   21.8455   58.2778 P   0  0  1  0  0  5  0  0  0  0  0  0
  1 23  1  0
  1 22  1  0
  1  2  1  6
  2  3  1  0
  3  4  1  0
  4  5  1  0
 22 12  1  0
 12 19  2  0
 12 14  1  0
 14 13  1  0
 13 15  1  0
 15 20  2  0
 15 21  1  0
 23 16  2  0
 23 17  1  1
 23 18  1  0
 18 11  1  0
 11 10  1  0
 11  6  2  0
  6  7  1  0
  7  8  2  0
  8  9  1  0
  9 10  2  0
M  END
$$$$
