1a0q_ligand
     RDKit          3D

 23 23  0  0  0  0  0  0  0  0999 V2000
   13.0672   20.6777   59.2436 C   0  0  2  0  0  0  0  0  0  0  0  0
   12.0451   19.8994   58.4610 C   0  0  0  0  0  0  0  0  0  0  0  0
   11.8397   18.5082   58.9606 C   0  0  0  0  0  0  0  0  0  0  0  0
   11.9608   17.5718   57.7639 C   0  0  0  0  0  0  0  0  0  0  0  0
   10.6785   16.8648   57.4554 C   0  0  0  0  0  0  0  0  0  0  0  0
   14.7531   20.9702   55.1605 C   0  0  0  0  0  0  0  0  0  0  0  0
   14.9903   21.2533   53.8407 C   0  0  0  0  0  0  0  0  0  0  0  0
   16.0937   21.9666   53.4483 C   0  0  0  0  0  0  0  0  0  0  0  0
   16.9677   22.3934   54.4525 C   0  0  0  0  0  0  0  0  0  0  0  0
   16.7208   22.1044   55.7735 C   0  0  0  0  0  0  0  0  0  0  0  0
   15.6125   21.3872   56.1739 C   0  0  0  0  0  0  0  0  0  0  0  0
   12.9099   21.1261   61.6953 C   0  0  0  0  0  0  0  0  0  0  0  0
   11.4336   21.1277   63.6833 C   0  0  0  0  0  0  0  0  0  0  0  0
   12.3983   21.9122   62.8480 C   0  0  0  0  0  0  0  0  0  0  0  0
   12.1314   20.1482   64.5530 C   0  0  0  0  0  0  0  0  0  0  0  0
   13.0983   22.2977   57.1054 O   0  0  0  0  0  0  0  0  0  0  0  0
   14.5163   23.1865   59.0732 O   0  0  0  0  0  0  0  0  0  0  0  0
   15.3748   21.1019   57.5125 O   0  0  0  0  0  0  0  0  0  0  0  0
   13.7232   20.1916   61.9010 O   0  0  0  0  0  0  0  0  0  0  0  0
   11.6687   19.0105   64.8312 O   0  0  0  0  0  0  0  0  0  0  0  0
   13.3741   20.5657   65.0676 O   0  0  0  0  0  0  0  0  0  0  0  0
   12.5131   21.3907   60.3561 N   0  0  0  0  0  0  0  0  0  0  0  0
   14.0064   21.8215   58.2337 P   0  0  1  0  0  5  0  0  0  0  0  0
  1 23  1  0
  1 22  1  0
  1  2  1  6
  2  3  1  0
  3  4  1  0
  4  5  1  0
 22 12  1  0
 12 19  2  0
 12 14  1  0
 14 13  1  0
 13 15  1  0
 15 20  2  0
 15 21  1  0
 23 16  2  0
 23 17  1  1
 23 18  1  0
 18 11  1  0
 11 10  1  0
 11  6  2  0
  6  7  1  0
  7  8  2  0
  8  9  1  0
  9 10  2  0
M  END
$$$$
