1a0q_ligand
     RDKit          3D

 23 23  0  0  0  0  0  0  0  0999 V2000
   13.1522   20.3769   59.2537 C   0  0  2  0  0  0  0  0  0  0  0  0
   12.2598   19.5473   58.3715 C   0  0  0  0  0  0  0  0  0  0  0  0
   11.3140   18.6743   59.1269 C   0  0  0  0  0  0  0  0  0  0  0  0
   11.1592   17.3798   58.3372 C   0  0  0  0  0  0  0  0  0  0  0  0
   11.6308   17.5095   56.9229 C   0  0  0  0  0  0  0  0  0  0  0  0
   16.9303   21.9372   55.9729 C   0  0  0  0  0  0  0  0  0  0  0  0
   17.2365   22.4170   54.7262 C   0  0  0  0  0  0  0  0  0  0  0  0
   16.3982   22.2230   53.6585 C   0  0  0  0  0  0  0  0  0  0  0  0
   15.2167   21.5144   53.8955 C   0  0  0  0  0  0  0  0  0  0  0  0
   14.9188   21.0373   55.1498 C   0  0  0  0  0  0  0  0  0  0  0  0
   15.7583   21.2295   56.2275 C   0  0  0  0  0  0  0  0  0  0  0  0
   12.6337   20.8556   61.6493 C   0  0  0  0  0  0  0  0  0  0  0  0
   12.4666   21.4751   64.0408 C   0  0  0  0  0  0  0  0  0  0  0  0
   11.8040   21.5042   62.6978 C   0  0  0  0  0  0  0  0  0  0  0  0
   12.8040   22.8401   64.5158 C   0  0  0  0  0  0  0  0  0  0  0  0
   13.3045   22.2118   57.3024 O   0  0  0  0  0  0  0  0  0  0  0  0
   14.8643   22.7199   59.2978 O   0  0  0  0  0  0  0  0  0  0  0  0
   15.4452   20.7420   57.4900 O   0  0  0  0  0  0  0  0  0  0  0  0
   13.5408   20.0567   61.9898 O   0  0  0  0  0  0  0  0  0  0  0  0
   13.3432   23.7166   63.7899 O   0  0  0  0  0  0  0  0  0  0  0  0
   12.4819   23.1159   65.8588 O   0  0  0  0  0  0  0  0  0  0  0  0
   12.4412   21.1043   60.2629 N   0  0  0  0  0  0  0  0  0  0  0  0
   14.1844   21.5190   58.3369 P   0  0  1  0  0  5  0  0  0  0  0  0
  1 23  1  0
  1 22  1  0
  1  2  1  6
  2  3  1  0
  3  4  1  0
  4  5  1  0
 22 12  1  0
 12 19  2  0
 12 14  1  0
 14 13  1  0
 13 15  1  0
 15 20  2  0
 15 21  1  0
 23 16  2  0
 23 17  1  1
 23 18  1  0
 18 11  1  0
 11 10  1  0
 11  6  2  0
  6  7  1  0
  7  8  2  0
  8  9  1  0
  9 10  2  0
M  END
$$$$
