1a0q_ligand
     RDKit          3D

 23 23  0  0  0  0  0  0  0  0999 V2000
   13.2260   20.6184   59.2306 C   0  0  2  0  0  0  0  0  0  0  0  0
   12.3278   19.8031   58.3411 C   0  0  0  0  0  0  0  0  0  0  0  0
   11.6477   18.6772   59.0461 C   0  0  0  0  0  0  0  0  0  0  0  0
   10.9140   17.8562   57.9918 C   0  0  0  0  0  0  0  0  0  0  0  0
   11.7786   16.7967   57.3844 C   0  0  0  0  0  0  0  0  0  0  0  0
   16.8917   22.1771   55.8138 C   0  0  0  0  0  0  0  0  0  0  0  0
   17.0948   22.4527   54.4867 C   0  0  0  0  0  0  0  0  0  0  0  0
   16.2183   22.0228   53.5238 C   0  0  0  0  0  0  0  0  0  0  0  0
   15.1075   21.2907   53.9532 C   0  0  0  0  0  0  0  0  0  0  0  0
   14.9128   21.0196   55.2867 C   0  0  0  0  0  0  0  0  0  0  0  0
   15.7912   21.4495   56.2597 C   0  0  0  0  0  0  0  0  0  0  0  0
   12.7919   20.9831   61.6628 C   0  0  0  0  0  0  0  0  0  0  0  0
   11.1595   21.0657   63.5228 C   0  0  0  0  0  0  0  0  0  0  0  0
   12.2314   21.7959   62.7735 C   0  0  0  0  0  0  0  0  0  0  0  0
   11.7267   20.1954   64.5828 C   0  0  0  0  0  0  0  0  0  0  0  0
   13.3154   22.3885   57.2166 O   0  0  0  0  0  0  0  0  0  0  0  0
   14.6717   23.1344   59.2847 O   0  0  0  0  0  0  0  0  0  0  0  0
   15.5825   21.1687   57.6041 O   0  0  0  0  0  0  0  0  0  0  0  0
   13.5250   19.9992   61.9301 O   0  0  0  0  0  0  0  0  0  0  0  0
   12.7028   20.5257   65.3067 O   0  0  0  0  0  0  0  0  0  0  0  0
   11.1012   18.9440   64.7445 O   0  0  0  0  0  0  0  0  0  0  0  0
   12.5300   21.2761   60.2965 N   0  0  0  0  0  0  0  0  0  0  0  0
   14.1911   21.8330   58.3342 P   0  0  1  0  0  5  0  0  0  0  0  0
  1 23  1  0
  1 22  1  0
  1  2  1  6
  2  3  1  0
  3  4  1  0
  4  5  1  0
 22 12  1  0
 12 19  2  0
 12 14  1  0
 14 13  1  0
 13 15  1  0
 15 20  2  0
 15 21  1  0
 23 16  2  0
 23 17  1  1
 23 18  1  0
 18 11  1  0
 11 10  1  0
 11  6  2  0
  6  7  1  0
  7  8  2  0
  8  9  1  0
  9 10  2  0
M  END
$$$$
