1a0q_ligand
     RDKit          3D

 23 23  0  0  0  0  0  0  0  0999 V2000
   12.3989   20.3204   60.3341 C   0  0  2  0  0  0  0  0  0  0  0  0
   11.9610   19.0900   59.5875 C   0  0  0  0  0  0  0  0  0  0  0  0
   11.9220   19.2696   58.1064 C   0  0  0  0  0  0  0  0  0  0  0  0
   12.2194   17.9144   57.4752 C   0  0  0  0  0  0  0  0  0  0  0  0
   10.9770   17.1425   57.1593 C   0  0  0  0  0  0  0  0  0  0  0  0
   14.1844   20.9329   65.0247 C   0  0  0  0  0  0  0  0  0  0  0  0
   14.2353   20.8030   66.3881 C   0  0  0  0  0  0  0  0  0  0  0  0
   13.1292   21.0176   67.1697 C   0  0  0  0  0  0  0  0  0  0  0  0
   11.9460   21.3748   66.5164 C   0  0  0  0  0  0  0  0  0  0  0  0
   11.9054   21.5025   65.1483 C   0  0  0  0  0  0  0  0  0  0  0  0
   13.0149   21.2878   64.3572 C   0  0  0  0  0  0  0  0  0  0  0  0
   14.1288   22.0101   59.7102 C   0  0  0  0  0  0  0  0  0  0  0  0
   15.7587   23.8166   60.1703 C   0  0  0  0  0  0  0  0  0  0  0  0
   15.5467   22.4437   59.6100 C   0  0  0  0  0  0  0  0  0  0  0  0
   15.5625   23.8452   61.6411 C   0  0  0  0  0  0  0  0  0  0  0  0
   10.6625   20.3513   62.3788 O   0  0  0  0  0  0  0  0  0  0  0  0
   12.6242   18.7094   62.7376 O   0  0  0  0  0  0  0  0  0  0  0  0
   12.9602   21.4202   62.9754 O   0  0  0  0  0  0  0  0  0  0  0  0
   13.2148   22.8342   59.4606 O   0  0  0  0  0  0  0  0  0  0  0  0
   14.7121   24.5747   62.2162 O   0  0  0  0  0  0  0  0  0  0  0  0
   16.3990   22.9907   62.3851 O   0  0  0  0  0  0  0  0  0  0  0  0
   13.7605   20.6879   60.0806 N   0  0  0  0  0  0  0  0  0  0  0  0
   12.1540   20.1947   62.1045 P   0  0  1  0  0  5  0  0  0  0  0  0
  1 23  1  0
  1 22  1  0
  1  2  1  6
  2  3  1  0
  3  4  1  0
  4  5  1  0
 22 12  1  0
 12 19  2  0
 12 14  1  0
 14 13  1  0
 13 15  1  0
 15 20  2  0
 15 21  1  0
 23 16  2  0
 23 17  1  1
 23 18  1  0
 18 11  1  0
 11 10  1  0
 11  6  2  0
  6  7  1  0
  7  8  2  0
  8  9  1  0
  9 10  2  0
M  END
$$$$
