1a0q_ligand
     RDKit          3D

 23 23  0  0  0  0  0  0  0  0999 V2000
   13.2550   20.6167   59.3591 C   0  0  2  0  0  0  0  0  0  0  0  0
   12.2937   19.7666   58.5742 C   0  0  0  0  0  0  0  0  0  0  0  0
   11.4569   18.8683   59.4228 C   0  0  0  0  0  0  0  0  0  0  0  0
   10.7346   17.9030   58.4901 C   0  0  0  0  0  0  0  0  0  0  0  0
   11.6781   17.0344   57.7192 C   0  0  0  0  0  0  0  0  0  0  0  0
   16.8728   21.9426   55.7749 C   0  0  0  0  0  0  0  0  0  0  0  0
   17.0713   22.2077   54.4449 C   0  0  0  0  0  0  0  0  0  0  0  0
   16.1570   21.8304   53.4952 C   0  0  0  0  0  0  0  0  0  0  0  0
   15.0123   21.1632   53.9412 C   0  0  0  0  0  0  0  0  0  0  0  0
   14.8225   20.9021   55.2774 C   0  0  0  0  0  0  0  0  0  0  0  0
   15.7389   21.2792   56.2371 C   0  0  0  0  0  0  0  0  0  0  0  0
   12.9510   21.1367   61.7828 C   0  0  0  0  0  0  0  0  0  0  0  0
   11.1262   21.3391   63.4442 C   0  0  0  0  0  0  0  0  0  0  0  0
   12.3694   21.9544   62.8790 C   0  0  0  0  0  0  0  0  0  0  0  0
   11.4262   20.1098   64.2198 C   0  0  0  0  0  0  0  0  0  0  0  0
   13.2709   22.2439   57.2263 O   0  0  0  0  0  0  0  0  0  0  0  0
   14.7419   23.1017   59.1687 O   0  0  0  0  0  0  0  0  0  0  0  0
   15.5348   21.0091   57.5843 O   0  0  0  0  0  0  0  0  0  0  0  0
   13.7556   20.2145   62.0640 O   0  0  0  0  0  0  0  0  0  0  0  0
   10.7885   19.0317   64.0901 O   0  0  0  0  0  0  0  0  0  0  0  0
   12.4914   20.2107   65.1356 O   0  0  0  0  0  0  0  0  0  0  0  0
   12.6313   21.3574   60.4153 N   0  0  0  0  0  0  0  0  0  0  0  0
   14.1930   21.7486   58.3349 P   0  0  1  0  0  5  0  0  0  0  0  0
  1 23  1  0
  1 22  1  0
  1  2  1  6
  2  3  1  0
  3  4  1  0
  4  5  1  0
 22 12  1  0
 12 19  2  0
 12 14  1  0
 14 13  1  0
 13 15  1  0
 15 20  2  0
 15 21  1  0
 23 16  2  0
 23 17  1  1
 23 18  1  0
 18 11  1  0
 11 10  1  0
 11  6  2  0
  6  7  1  0
  7  8  2  0
  8  9  1  0
  9 10  2  0
M  END
$$$$
