1a0q_ligand
     RDKit          3D

 23 23  0  0  0  0  0  0  0  0999 V2000
   13.2287   20.5073   59.3683 C   0  0  2  0  0  0  0  0  0  0  0  0
   12.2534   19.6476   58.6114 C   0  0  0  0  0  0  0  0  0  0  0  0
   11.5634   18.6332   59.4611 C   0  0  0  0  0  0  0  0  0  0  0  0
   10.8621   17.6558   58.5249 C   0  0  0  0  0  0  0  0  0  0  0  0
   11.7892   17.0691   57.5074 C   0  0  0  0  0  0  0  0  0  0  0  0
   16.7341   22.1483   55.8198 C   0  0  0  0  0  0  0  0  0  0  0  0
   16.9478   22.5534   54.5281 C   0  0  0  0  0  0  0  0  0  0  0  0
   16.0799   22.2200   53.5202 C   0  0  0  0  0  0  0  0  0  0  0  0
   14.9666   21.4485   53.8661 C   0  0  0  0  0  0  0  0  0  0  0  0
   14.7613   21.0473   55.1648 C   0  0  0  0  0  0  0  0  0  0  0  0
   15.6310   21.3797   56.1827 C   0  0  0  0  0  0  0  0  0  0  0  0
   13.0020   20.9747   61.8110 C   0  0  0  0  0  0  0  0  0  0  0  0
   11.1850   21.4738   63.4175 C   0  0  0  0  0  0  0  0  0  0  0  0
   12.5521   21.8435   62.9296 C   0  0  0  0  0  0  0  0  0  0  0  0
   11.1832   20.1540   64.0963 C   0  0  0  0  0  0  0  0  0  0  0  0
   13.1170   22.1777   57.2720 O   0  0  0  0  0  0  0  0  0  0  0  0
   14.6720   23.0162   59.1566 O   0  0  0  0  0  0  0  0  0  0  0  0
   15.4117   20.9676   57.4910 O   0  0  0  0  0  0  0  0  0  0  0  0
   13.7343   19.9848   62.0576 O   0  0  0  0  0  0  0  0  0  0  0  0
   10.7854   19.0909   63.5508 O   0  0  0  0  0  0  0  0  0  0  0  0
   11.6626   20.1481   65.4205 O   0  0  0  0  0  0  0  0  0  0  0  0
   12.6342   21.2201   60.4599 N   0  0  0  0  0  0  0  0  0  0  0  0
   14.0996   21.6728   58.3227 P   0  0  1  0  0  5  0  0  0  0  0  0
  1 23  1  0
  1 22  1  0
  1  2  1  6
  2  3  1  0
  3  4  1  0
  4  5  1  0
 22 12  1  0
 12 19  2  0
 12 14  1  0
 14 13  1  0
 13 15  1  0
 15 20  2  0
 15 21  1  0
 23 16  2  0
 23 17  1  1
 23 18  1  0
 18 11  1  0
 11 10  1  0
 11  6  2  0
  6  7  1  0
  7  8  2  0
  8  9  1  0
  9 10  2  0
M  END
$$$$
