1a0q_ligand
     RDKit          3D

 23 23  0  0  0  0  0  0  0  0999 V2000
   13.0831   20.6819   59.2274 C   0  0  2  0  0  0  0  0  0  0  0  0
   12.2546   19.8708   58.2689 C   0  0  0  0  0  0  0  0  0  0  0  0
   11.4908   18.7675   58.9219 C   0  0  0  0  0  0  0  0  0  0  0  0
   10.8203   17.9608   57.8158 C   0  0  0  0  0  0  0  0  0  0  0  0
   11.7119   16.8951   57.2606 C   0  0  0  0  0  0  0  0  0  0  0  0
   16.8505   22.1777   55.8972 C   0  0  0  0  0  0  0  0  0  0  0  0
   17.0463   22.3353   54.5499 C   0  0  0  0  0  0  0  0  0  0  0  0
   16.1202   21.9020   53.6362 C   0  0  0  0  0  0  0  0  0  0  0  0
   14.9665   21.2921   54.1373 C   0  0  0  0  0  0  0  0  0  0  0  0
   14.7795   21.1388   55.4905 C   0  0  0  0  0  0  0  0  0  0  0  0
   15.7077   21.5727   56.4142 C   0  0  0  0  0  0  0  0  0  0  0  0
   12.5276   20.9057   61.6519 C   0  0  0  0  0  0  0  0  0  0  0  0
   12.0755   20.8907   64.0864 C   0  0  0  0  0  0  0  0  0  0  0  0
   11.7468   21.5097   62.7627 C   0  0  0  0  0  0  0  0  0  0  0  0
   13.0595   21.7041   64.8432 C   0  0  0  0  0  0  0  0  0  0  0  0
   13.1991   22.4990   57.2571 O   0  0  0  0  0  0  0  0  0  0  0  0
   14.3616   23.2796   59.4279 O   0  0  0  0  0  0  0  0  0  0  0  0
   15.5063   21.4116   57.7792 O   0  0  0  0  0  0  0  0  0  0  0  0
   13.4057   20.0469   61.9137 O   0  0  0  0  0  0  0  0  0  0  0  0
   13.3132   22.9098   64.5830 O   0  0  0  0  0  0  0  0  0  0  0  0
   13.7158   21.0417   65.8987 O   0  0  0  0  0  0  0  0  0  0  0  0
   12.3198   21.2631   60.2918 N   0  0  0  0  0  0  0  0  0  0  0  0
   14.0294   21.9731   58.4227 P   0  0  1  0  0  5  0  0  0  0  0  0
  1 23  1  0
  1 22  1  0
  1  2  1  6
  2  3  1  0
  3  4  1  0
  4  5  1  0
 22 12  1  0
 12 19  2  0
 12 14  1  0
 14 13  1  0
 13 15  1  0
 15 20  2  0
 15 21  1  0
 23 16  2  0
 23 17  1  1
 23 18  1  0
 18 11  1  0
 11 10  1  0
 11  6  2  0
  6  7  1  0
  7  8  2  0
  8  9  1  0
  9 10  2  0
M  END
$$$$
