1a0q_ligand
     RDKit          3D

 23 23  0  0  0  0  0  0  0  0999 V2000
   13.1459   20.4823   59.1890 C   0  0  2  0  0  0  0  0  0  0  0  0
   12.3525   19.5558   58.3087 C   0  0  0  0  0  0  0  0  0  0  0  0
   11.4064   18.6792   59.0595 C   0  0  0  0  0  0  0  0  0  0  0  0
   11.0171   17.5316   58.1347 C   0  0  0  0  0  0  0  0  0  0  0  0
   11.8425   17.4937   56.8871 C   0  0  0  0  0  0  0  0  0  0  0  0
   16.8102   22.2932   55.8579 C   0  0  0  0  0  0  0  0  0  0  0  0
   17.0430   22.6556   54.5568 C   0  0  0  0  0  0  0  0  0  0  0  0
   16.1802   22.3050   53.5504 C   0  0  0  0  0  0  0  0  0  0  0  0
   15.0517   21.5613   53.9078 C   0  0  0  0  0  0  0  0  0  0  0  0
   14.8273   21.2027   55.2157 C   0  0  0  0  0  0  0  0  0  0  0  0
   15.6918   21.5527   56.2322 C   0  0  0  0  0  0  0  0  0  0  0  0
   12.5558   20.8169   61.5925 C   0  0  0  0  0  0  0  0  0  0  0  0
   11.7682   20.7009   63.9372 C   0  0  0  0  0  0  0  0  0  0  0  0
   11.7777   21.4906   62.6645 C   0  0  0  0  0  0  0  0  0  0  0  0
   12.9074   21.0638   64.8166 C   0  0  0  0  0  0  0  0  0  0  0  0
   13.1000   22.2227   57.1478 O   0  0  0  0  0  0  0  0  0  0  0  0
   14.3973   23.1008   59.2018 O   0  0  0  0  0  0  0  0  0  0  0  0
   15.4531   21.1838   57.5500 O   0  0  0  0  0  0  0  0  0  0  0  0
   13.4177   19.9588   61.9051 O   0  0  0  0  0  0  0  0  0  0  0  0
   13.3301   20.3288   65.7476 O   0  0  0  0  0  0  0  0  0  0  0  0
   13.5110   22.3082   64.5510 O   0  0  0  0  0  0  0  0  0  0  0  0
   12.3629   21.1063   60.2141 N   0  0  0  0  0  0  0  0  0  0  0  0
   14.0158   21.7523   58.2723 P   0  0  1  0  0  5  0  0  0  0  0  0
  1 23  1  0
  1 22  1  0
  1  2  1  6
  2  3  1  0
  3  4  1  0
  4  5  1  0
 22 12  1  0
 12 19  2  0
 12 14  1  0
 14 13  1  0
 13 15  1  0
 15 20  2  0
 15 21  1  0
 23 16  2  0
 23 17  1  1
 23 18  1  0
 18 11  1  0
 11 10  1  0
 11  6  2  0
  6  7  1  0
  7  8  2  0
  8  9  1  0
  9 10  2  0
M  END
$$$$
