1a0q_ligand
     RDKit          3D

 23 23  0  0  0  0  0  0  0  0999 V2000
   13.0296   20.5340   59.3252 C   0  0  2  0  0  0  0  0  0  0  0  0
   12.1368   19.6622   58.4850 C   0  0  0  0  0  0  0  0  0  0  0  0
   11.3072   18.7106   59.2808 C   0  0  0  0  0  0  0  0  0  0  0  0
   11.1625   17.4350   58.4589 C   0  0  0  0  0  0  0  0  0  0  0  0
   11.5008   17.6398   57.0157 C   0  0  0  0  0  0  0  0  0  0  0  0
   14.7252   20.9467   55.2669 C   0  0  0  0  0  0  0  0  0  0  0  0
   14.9492   21.2655   53.9529 C   0  0  0  0  0  0  0  0  0  0  0  0
   16.0143   22.0426   53.5761 C   0  0  0  0  0  0  0  0  0  0  0  0
   16.8631   22.4965   54.5900 C   0  0  0  0  0  0  0  0  0  0  0  0
   16.6296   22.1712   55.9050 C   0  0  0  0  0  0  0  0  0  0  0  0
   15.5598   21.3898   56.2897 C   0  0  0  0  0  0  0  0  0  0  0  0
   12.6598   21.0234   61.7461 C   0  0  0  0  0  0  0  0  0  0  0  0
   11.1065   21.0142   63.6744 C   0  0  0  0  0  0  0  0  0  0  0  0
   12.0419   21.8268   62.8329 C   0  0  0  0  0  0  0  0  0  0  0  0
   11.8247   20.2992   64.7587 C   0  0  0  0  0  0  0  0  0  0  0  0
   13.0376   22.2344   57.2500 O   0  0  0  0  0  0  0  0  0  0  0  0
   14.4299   23.0751   59.2569 O   0  0  0  0  0  0  0  0  0  0  0  0
   15.3354   21.0684   57.6224 O   0  0  0  0  0  0  0  0  0  0  0  0
   13.5004   20.1374   62.0382 O   0  0  0  0  0  0  0  0  0  0  0  0
   13.0453   20.4707   65.0165 O   0  0  0  0  0  0  0  0  0  0  0  0
   11.0510   19.3919   65.5082 O   0  0  0  0  0  0  0  0  0  0  0  0
   12.3356   21.2181   60.3757 N   0  0  0  0  0  0  0  0  0  0  0  0
   13.9502   21.7334   58.3639 P   0  0  1  0  0  5  0  0  0  0  0  0
  1 23  1  0
  1 22  1  0
  1  2  1  6
  2  3  1  0
  3  4  1  0
  4  5  1  0
 22 12  1  0
 12 19  2  0
 12 14  1  0
 14 13  1  0
 13 15  1  0
 15 20  2  0
 15 21  1  0
 23 16  2  0
 23 17  1  1
 23 18  1  0
 18 11  1  0
 11 10  1  0
 11  6  2  0
  6  7  1  0
  7  8  2  0
  8  9  1  0
  9 10  2  0
M  END
$$$$
