1a0q_ligand
     RDKit          3D

 23 23  0  0  0  0  0  0  0  0999 V2000
   13.0775   20.3950   59.2012 C   0  0  2  0  0  0  0  0  0  0  0  0
   12.2319   19.5662   58.2731 C   0  0  0  0  0  0  0  0  0  0  0  0
   11.3415   18.5977   58.9775 C   0  0  0  0  0  0  0  0  0  0  0  0
   11.5060   17.2460   58.2924 C   0  0  0  0  0  0  0  0  0  0  0  0
   11.2856   17.3205   56.8142 C   0  0  0  0  0  0  0  0  0  0  0  0
   16.8932   22.0353   55.9632 C   0  0  0  0  0  0  0  0  0  0  0  0
   17.1456   22.2807   54.6386 C   0  0  0  0  0  0  0  0  0  0  0  0
   16.2763   21.8783   53.6575 C   0  0  0  0  0  0  0  0  0  0  0  0
   15.1203   21.2063   54.0656 C   0  0  0  0  0  0  0  0  0  0  0  0
   14.8765   20.9650   55.3968 C   0  0  0  0  0  0  0  0  0  0  0  0
   15.7474   21.3675   56.3880 C   0  0  0  0  0  0  0  0  0  0  0  0
   12.5938   20.6819   61.6344 C   0  0  0  0  0  0  0  0  0  0  0  0
   12.5116   21.1421   64.0660 C   0  0  0  0  0  0  0  0  0  0  0  0
   11.8104   21.2752   62.7492 C   0  0  0  0  0  0  0  0  0  0  0  0
   13.4227   22.2857   64.3205 C   0  0  0  0  0  0  0  0  0  0  0  0
   13.1649   22.1518   57.1756 O   0  0  0  0  0  0  0  0  0  0  0  0
   14.3152   23.0173   59.3205 O   0  0  0  0  0  0  0  0  0  0  0  0
   15.4888   21.1173   57.7297 O   0  0  0  0  0  0  0  0  0  0  0  0
   13.5213   19.8764   61.8952 O   0  0  0  0  0  0  0  0  0  0  0  0
   13.3013   23.4096   63.7655 O   0  0  0  0  0  0  0  0  0  0  0  0
   14.4612   22.0455   65.2409 O   0  0  0  0  0  0  0  0  0  0  0  0
   12.3345   20.9914   60.2713 N   0  0  0  0  0  0  0  0  0  0  0  0
   14.0034   21.6752   58.3564 P   0  0  1  0  0  5  0  0  0  0  0  0
  1 23  1  0
  1 22  1  0
  1  2  1  6
  2  3  1  0
  3  4  1  0
  4  5  1  0
 22 12  1  0
 12 19  2  0
 12 14  1  0
 14 13  1  0
 13 15  1  0
 15 20  2  0
 15 21  1  0
 23 16  2  0
 23 17  1  1
 23 18  1  0
 18 11  1  0
 11 10  1  0
 11  6  2  0
  6  7  1  0
  7  8  2  0
  8  9  1  0
  9 10  2  0
M  END
$$$$
