1a0q_ligand
     RDKit          3D

 23 23  0  0  0  0  0  0  0  0999 V2000
   13.1887   20.5959   59.2543 C   0  0  2  0  0  0  0  0  0  0  0  0
   12.4434   19.7252   58.2800 C   0  0  0  0  0  0  0  0  0  0  0  0
   11.3173   18.9639   58.8961 C   0  0  0  0  0  0  0  0  0  0  0  0
   10.7774   18.0112   57.8357 C   0  0  0  0  0  0  0  0  0  0  0  0
   11.7463   16.9233   57.4938 C   0  0  0  0  0  0  0  0  0  0  0  0
   14.6341   21.3862   55.4647 C   0  0  0  0  0  0  0  0  0  0  0  0
   14.7696   21.6036   54.1183 C   0  0  0  0  0  0  0  0  0  0  0  0
   15.9395   22.0790   53.5839 C   0  0  0  0  0  0  0  0  0  0  0  0
   16.9895   22.3329   54.4712 C   0  0  0  0  0  0  0  0  0  0  0  0
   16.8434   22.1115   55.8200 C   0  0  0  0  0  0  0  0  0  0  0  0
   15.6689   21.6334   56.3632 C   0  0  0  0  0  0  0  0  0  0  0  0
   12.4944   20.7662   61.6472 C   0  0  0  0  0  0  0  0  0  0  0  0
   11.7490   20.5890   64.0018 C   0  0  0  0  0  0  0  0  0  0  0  0
   11.6793   21.3765   62.7296 C   0  0  0  0  0  0  0  0  0  0  0  0
   12.8152   21.0944   64.9021 C   0  0  0  0  0  0  0  0  0  0  0  0
   13.1959   22.4977   57.3621 O   0  0  0  0  0  0  0  0  0  0  0  0
   14.4520   23.1963   59.5086 O   0  0  0  0  0  0  0  0  0  0  0  0
   15.5347   21.4141   57.7283 O   0  0  0  0  0  0  0  0  0  0  0  0
   13.3395   19.8837   61.9370 O   0  0  0  0  0  0  0  0  0  0  0  0
   13.4263   22.1799   64.7170 O   0  0  0  0  0  0  0  0  0  0  0  0
   13.1197   20.2760   66.0070 O   0  0  0  0  0  0  0  0  0  0  0  0
   12.3560   21.1438   60.2836 N   0  0  0  0  0  0  0  0  0  0  0  0
   14.0846   21.9310   58.4637 P   0  0  1  0  0  5  0  0  0  0  0  0
  1 23  1  0
  1 22  1  0
  1  2  1  6
  2  3  1  0
  3  4  1  0
  4  5  1  0
 22 12  1  0
 12 19  2  0
 12 14  1  0
 14 13  1  0
 13 15  1  0
 15 20  2  0
 15 21  1  0
 23 16  2  0
 23 17  1  1
 23 18  1  0
 18 11  1  0
 11 10  1  0
 11  6  2  0
  6  7  1  0
  7  8  2  0
  8  9  1  0
  9 10  2  0
M  END
$$$$
