1a0q_ligand
     RDKit          3D

 23 23  0  0  0  0  0  0  0  0999 V2000
   13.1561   20.6535   59.2252 C   0  0  2  0  0  0  0  0  0  0  0  0
   12.2457   19.8147   58.3705 C   0  0  0  0  0  0  0  0  0  0  0  0
   11.4325   18.8323   59.1457 C   0  0  0  0  0  0  0  0  0  0  0  0
   10.7818   17.8871   58.1424 C   0  0  0  0  0  0  0  0  0  0  0  0
   11.7844   17.1770   57.2881 C   0  0  0  0  0  0  0  0  0  0  0  0
   14.8189   21.0989   55.2589 C   0  0  0  0  0  0  0  0  0  0  0  0
   15.0341   21.3527   53.9293 C   0  0  0  0  0  0  0  0  0  0  0  0
   16.1484   22.0267   53.5001 C   0  0  0  0  0  0  0  0  0  0  0  0
   17.0570   22.4446   54.4770 C   0  0  0  0  0  0  0  0  0  0  0  0
   16.8319   22.1851   55.8080 C   0  0  0  0  0  0  0  0  0  0  0  0
   15.7128   21.5075   56.2455 C   0  0  0  0  0  0  0  0  0  0  0  0
   12.7725   21.0122   61.6668 C   0  0  0  0  0  0  0  0  0  0  0  0
   11.1759   20.9077   63.5565 C   0  0  0  0  0  0  0  0  0  0  0  0
   12.1492   21.7533   62.7941 C   0  0  0  0  0  0  0  0  0  0  0  0
   11.8545   20.0868   64.5902 C   0  0  0  0  0  0  0  0  0  0  0  0
   13.1794   22.3492   57.1464 O   0  0  0  0  0  0  0  0  0  0  0  0
   14.4831   23.2344   59.1932 O   0  0  0  0  0  0  0  0  0  0  0  0
   15.4975   21.2518   57.5938 O   0  0  0  0  0  0  0  0  0  0  0  0
   13.5875   20.0892   61.9135 O   0  0  0  0  0  0  0  0  0  0  0  0
   11.4126   18.9821   65.0028 O   0  0  0  0  0  0  0  0  0  0  0  0
   13.0532   20.6197   65.1027 O   0  0  0  0  0  0  0  0  0  0  0  0
   12.4816   21.3078   60.3069 N   0  0  0  0  0  0  0  0  0  0  0  0
   14.0710   21.8774   58.2896 P   0  0  1  0  0  5  0  0  0  0  0  0
  1 23  1  0
  1 22  1  0
  1  2  1  6
  2  3  1  0
  3  4  1  0
  4  5  1  0
 22 12  1  0
 12 19  2  0
 12 14  1  0
 14 13  1  0
 13 15  1  0
 15 20  2  0
 15 21  1  0
 23 16  2  0
 23 17  1  1
 23 18  1  0
 18 11  1  0
 11 10  1  0
 11  6  2  0
  6  7  1  0
  7  8  2  0
  8  9  1  0
  9 10  2  0
M  END
$$$$
