1a0q_ligand
     RDKit          3D

 23 23  0  0  0  0  0  0  0  0999 V2000
   13.1371   20.4750   59.2156 C   0  0  2  0  0  0  0  0  0  0  0  0
   12.3264   19.5376   58.3630 C   0  0  0  0  0  0  0  0  0  0  0  0
   11.4515   18.6182   59.1481 C   0  0  0  0  0  0  0  0  0  0  0  0
   11.3211   17.3240   58.3533 C   0  0  0  0  0  0  0  0  0  0  0  0
   11.7652   17.4750   56.9324 C   0  0  0  0  0  0  0  0  0  0  0  0
   16.7362   22.3229   55.8388 C   0  0  0  0  0  0  0  0  0  0  0  0
   16.9567   22.6384   54.5234 C   0  0  0  0  0  0  0  0  0  0  0  0
   16.1180   22.1996   53.5314 C   0  0  0  0  0  0  0  0  0  0  0  0
   15.0270   21.4158   53.9186 C   0  0  0  0  0  0  0  0  0  0  0  0
   14.8147   21.1049   55.2407 C   0  0  0  0  0  0  0  0  0  0  0  0
   15.6551   21.5436   56.2428 C   0  0  0  0  0  0  0  0  0  0  0  0
   12.6198   20.8088   61.6359 C   0  0  0  0  0  0  0  0  0  0  0  0
   11.4751   20.7126   63.8294 C   0  0  0  0  0  0  0  0  0  0  0  0
   11.9932   21.5915   62.7328 C   0  0  0  0  0  0  0  0  0  0  0  0
   12.5151   20.4420   64.8532 C   0  0  0  0  0  0  0  0  0  0  0  0
   13.0394   22.1518   57.1236 O   0  0  0  0  0  0  0  0  0  0  0  0
   14.2810   23.1417   59.1611 O   0  0  0  0  0  0  0  0  0  0  0  0
   15.4289   21.2221   57.5751 O   0  0  0  0  0  0  0  0  0  0  0  0
   13.3909   19.8594   61.9208 O   0  0  0  0  0  0  0  0  0  0  0  0
   13.5486   21.1467   64.9991 O   0  0  0  0  0  0  0  0  0  0  0  0
   12.2829   19.3248   65.6786 O   0  0  0  0  0  0  0  0  0  0  0  0
   12.3803   21.0929   60.2637 N   0  0  0  0  0  0  0  0  0  0  0  0
   13.9632   21.7522   58.2688 P   0  0  1  0  0  5  0  0  0  0  0  0
  1 23  1  0
  1 22  1  0
  1  2  1  6
  2  3  1  0
  3  4  1  0
  4  5  1  0
 22 12  1  0
 12 19  2  0
 12 14  1  0
 14 13  1  0
 13 15  1  0
 15 20  2  0
 15 21  1  0
 23 16  2  0
 23 17  1  1
 23 18  1  0
 18 11  1  0
 11 10  1  0
 11  6  2  0
  6  7  1  0
  7  8  2  0
  8  9  1  0
  9 10  2  0
M  END
$$$$
