1a0q_ligand
     RDKit          3D

 23 23  0  0  0  0  0  0  0  0999 V2000
   13.2834   20.5619   59.2043 C   0  0  2  0  0  0  0  0  0  0  0  0
   12.3979   19.6861   58.3606 C   0  0  0  0  0  0  0  0  0  0  0  0
   11.5802   18.7206   59.1521 C   0  0  0  0  0  0  0  0  0  0  0  0
   10.9957   17.7088   58.1733 C   0  0  0  0  0  0  0  0  0  0  0  0
   12.0279   17.1371   57.2531 C   0  0  0  0  0  0  0  0  0  0  0  0
   16.9102   22.0958   55.6861 C   0  0  0  0  0  0  0  0  0  0  0  0
   17.0783   22.3041   54.3419 C   0  0  0  0  0  0  0  0  0  0  0  0
   16.1073   21.9601   53.4370 C   0  0  0  0  0  0  0  0  0  0  0  0
   14.9371   21.3873   53.9437 C   0  0  0  0  0  0  0  0  0  0  0  0
   14.7782   21.1825   55.2937 C   0  0  0  0  0  0  0  0  0  0  0  0
   15.7516   21.5266   56.2086 C   0  0  0  0  0  0  0  0  0  0  0  0
   12.9557   20.8920   61.6580 C   0  0  0  0  0  0  0  0  0  0  0  0
   11.1254   20.9593   63.3243 C   0  0  0  0  0  0  0  0  0  0  0  0
   12.3611   21.6273   62.8044 C   0  0  0  0  0  0  0  0  0  0  0  0
   11.4511   19.8633   64.2706 C   0  0  0  0  0  0  0  0  0  0  0  0
   13.1894   22.2448   57.1171 O   0  0  0  0  0  0  0  0  0  0  0  0
   14.4270   23.2289   59.1599 O   0  0  0  0  0  0  0  0  0  0  0  0
   15.5782   21.3141   57.5704 O   0  0  0  0  0  0  0  0  0  0  0  0
   13.8031   19.9917   61.8779 O   0  0  0  0  0  0  0  0  0  0  0  0
   12.5545   19.7653   64.8695 O   0  0  0  0  0  0  0  0  0  0  0  0
   10.4351   18.9091   64.4723 O   0  0  0  0  0  0  0  0  0  0  0  0
   12.6016   21.1681   60.3091 N   0  0  0  0  0  0  0  0  0  0  0  0
   14.1111   21.8420   58.2628 P   0  0  1  0  0  5  0  0  0  0  0  0
  1 23  1  0
  1 22  1  0
  1  2  1  6
  2  3  1  0
  3  4  1  0
  4  5  1  0
 22 12  1  0
 12 19  2  0
 12 14  1  0
 14 13  1  0
 13 15  1  0
 15 20  2  0
 15 21  1  0
 23 16  2  0
 23 17  1  1
 23 18  1  0
 18 11  1  0
 11 10  1  0
 11  6  2  0
  6  7  1  0
  7  8  2  0
  8  9  1  0
  9 10  2  0
M  END
$$$$
