1a0q_ligand
     RDKit          3D

 23 23  0  0  0  0  0  0  0  0999 V2000
   12.9315   20.5986   59.2672 C   0  0  2  0  0  0  0  0  0  0  0  0
   11.8765   19.8503   58.4991 C   0  0  0  0  0  0  0  0  0  0  0  0
   11.3543   18.6484   59.2132 C   0  0  0  0  0  0  0  0  0  0  0  0
   10.7955   17.6994   58.1594 C   0  0  0  0  0  0  0  0  0  0  0  0
   11.8584   16.8668   57.5143 C   0  0  0  0  0  0  0  0  0  0  0  0
   14.6479   21.1224   55.3863 C   0  0  0  0  0  0  0  0  0  0  0  0
   14.9085   21.2847   54.0506 C   0  0  0  0  0  0  0  0  0  0  0  0
   16.0769   21.8533   53.6129 C   0  0  0  0  0  0  0  0  0  0  0  0
   16.9924   22.2610   54.5877 C   0  0  0  0  0  0  0  0  0  0  0  0
   16.7215   22.0937   55.9249 C   0  0  0  0  0  0  0  0  0  0  0  0
   15.5478   21.5223   56.3710 C   0  0  0  0  0  0  0  0  0  0  0  0
   12.9550   20.8442   61.7524 C   0  0  0  0  0  0  0  0  0  0  0  0
   11.1569   21.2034   63.4165 C   0  0  0  0  0  0  0  0  0  0  0  0
   12.5515   21.5518   62.9953 C   0  0  0  0  0  0  0  0  0  0  0  0
   11.0978   19.8723   64.0703 C   0  0  0  0  0  0  0  0  0  0  0  0
   12.8898   22.1340   57.0675 O   0  0  0  0  0  0  0  0  0  0  0  0
   13.9482   23.3123   59.1082 O   0  0  0  0  0  0  0  0  0  0  0  0
   15.2866   21.3591   57.7255 O   0  0  0  0  0  0  0  0  0  0  0  0
   13.7779   19.8983   61.8229 O   0  0  0  0  0  0  0  0  0  0  0  0
   12.0916   19.1071   64.1832 O   0  0  0  0  0  0  0  0  0  0  0  0
    9.8377   19.4950   64.5736 O   0  0  0  0  0  0  0  0  0  0  0  0
   12.4429   21.1970   60.4740 N   0  0  0  0  0  0  0  0  0  0  0  0
   13.7554   21.8551   58.2913 P   0  0  1  0  0  5  0  0  0  0  0  0
  1 23  1  0
  1 22  1  0
  1  2  1  6
  2  3  1  0
  3  4  1  0
  4  5  1  0
 22 12  1  0
 12 19  2  0
 12 14  1  0
 14 13  1  0
 13 15  1  0
 15 20  2  0
 15 21  1  0
 23 16  2  0
 23 17  1  1
 23 18  1  0
 18 11  1  0
 11 10  1  0
 11  6  2  0
  6  7  1  0
  7  8  2  0
  8  9  1  0
  9 10  2  0
M  END
$$$$
