1a0q_ligand
     RDKit          3D

 23 23  0  0  0  0  0  0  0  0999 V2000
   13.0240   20.5972   59.2671 C   0  0  2  0  0  0  0  0  0  0  0  0
   12.2817   19.6676   58.3464 C   0  0  0  0  0  0  0  0  0  0  0  0
   11.3575   18.7341   59.0547 C   0  0  0  0  0  0  0  0  0  0  0  0
   10.7975   17.7708   58.0146 C   0  0  0  0  0  0  0  0  0  0  0  0
   11.8579   17.2129   57.1182 C   0  0  0  0  0  0  0  0  0  0  0  0
   16.6958   22.3759   55.9590 C   0  0  0  0  0  0  0  0  0  0  0  0
   16.9195   22.5576   54.6191 C   0  0  0  0  0  0  0  0  0  0  0  0
   16.0940   22.0051   53.6739 C   0  0  0  0  0  0  0  0  0  0  0  0
   15.0132   21.2477   54.1350 C   0  0  0  0  0  0  0  0  0  0  0  0
   14.7975   21.0715   55.4811 C   0  0  0  0  0  0  0  0  0  0  0  0
   15.6246   21.6249   56.4364 C   0  0  0  0  0  0  0  0  0  0  0  0
   12.3580   20.8445   61.6613 C   0  0  0  0  0  0  0  0  0  0  0  0
   12.0109   21.0812   64.1015 C   0  0  0  0  0  0  0  0  0  0  0  0
   11.5662   21.5007   62.7341 C   0  0  0  0  0  0  0  0  0  0  0  0
   13.0918   21.9565   64.6194 C   0  0  0  0  0  0  0  0  0  0  0  0
   13.0151   22.3159   57.2071 O   0  0  0  0  0  0  0  0  0  0  0  0
   14.0958   23.2933   59.3401 O   0  0  0  0  0  0  0  0  0  0  0  0
   15.3952   21.4390   57.7937 O   0  0  0  0  0  0  0  0  0  0  0  0
   13.2026   19.9676   61.9693 O   0  0  0  0  0  0  0  0  0  0  0  0
   13.3289   23.1094   64.1716 O   0  0  0  0  0  0  0  0  0  0  0  0
   13.8630   21.4186   65.6680 O   0  0  0  0  0  0  0  0  0  0  0  0
   12.1976   21.1714   60.2871 N   0  0  0  0  0  0  0  0  0  0  0  0
   13.8740   21.9157   58.4015 P   0  0  1  0  0  5  0  0  0  0  0  0
  1 23  1  0
  1 22  1  0
  1  2  1  6
  2  3  1  0
  3  4  1  0
  4  5  1  0
 22 12  1  0
 12 19  2  0
 12 14  1  0
 14 13  1  0
 13 15  1  0
 15 20  2  0
 15 21  1  0
 23 16  2  0
 23 17  1  1
 23 18  1  0
 18 11  1  0
 11 10  1  0
 11  6  2  0
  6  7  1  0
  7  8  2  0
  8  9  1  0
  9 10  2  0
M  END
$$$$
