1a0q_ligand
     RDKit          3D

 23 23  0  0  0  0  0  0  0  0999 V2000
   13.2019   20.6158   59.2048 C   0  0  2  0  0  0  0  0  0  0  0  0
   12.2390   19.8418   58.3465 C   0  0  0  0  0  0  0  0  0  0  0  0
   11.6364   18.6628   59.0350 C   0  0  0  0  0  0  0  0  0  0  0  0
   10.8987   17.8468   57.9797 C   0  0  0  0  0  0  0  0  0  0  0  0
   11.7957   16.8845   57.2668 C   0  0  0  0  0  0  0  0  0  0  0  0
   16.9733   22.0482   55.8327 C   0  0  0  0  0  0  0  0  0  0  0  0
   17.2204   22.3108   54.5104 C   0  0  0  0  0  0  0  0  0  0  0  0
   16.3544   21.9084   53.5264 C   0  0  0  0  0  0  0  0  0  0  0  0
   15.2073   21.2182   53.9292 C   0  0  0  0  0  0  0  0  0  0  0  0
   14.9686   20.9598   55.2580 C   0  0  0  0  0  0  0  0  0  0  0  0
   15.8363   21.3622   56.2521 C   0  0  0  0  0  0  0  0  0  0  0  0
   12.8871   21.0063   61.6513 C   0  0  0  0  0  0  0  0  0  0  0  0
   11.4377   21.0904   63.6571 C   0  0  0  0  0  0  0  0  0  0  0  0
   12.3952   21.8376   62.7806 C   0  0  0  0  0  0  0  0  0  0  0  0
   12.1474   20.2426   64.6472 C   0  0  0  0  0  0  0  0  0  0  0  0
   13.3270   22.3080   57.1269 O   0  0  0  0  0  0  0  0  0  0  0  0
   14.6583   23.1260   59.1839 O   0  0  0  0  0  0  0  0  0  0  0  0
   15.5830   21.0945   57.5915 O   0  0  0  0  0  0  0  0  0  0  0  0
   13.6078   20.0064   61.8922 O   0  0  0  0  0  0  0  0  0  0  0  0
   11.7556   19.0960   64.9902 O   0  0  0  0  0  0  0  0  0  0  0  0
   13.3162   20.7998   65.2013 O   0  0  0  0  0  0  0  0  0  0  0  0
   12.5726   21.2986   60.2961 N   0  0  0  0  0  0  0  0  0  0  0  0
   14.1848   21.7917   58.2767 P   0  0  1  0  0  5  0  0  0  0  0  0
  1 23  1  0
  1 22  1  0
  1  2  1  6
  2  3  1  0
  3  4  1  0
  4  5  1  0
 22 12  1  0
 12 19  2  0
 12 14  1  0
 14 13  1  0
 13 15  1  0
 15 20  2  0
 15 21  1  0
 23 16  2  0
 23 17  1  1
 23 18  1  0
 18 11  1  0
 11 10  1  0
 11  6  2  0
  6  7  1  0
  7  8  2  0
  8  9  1  0
  9 10  2  0
M  END
$$$$
