1a0q_ligand
     RDKit          3D

 23 23  0  0  0  0  0  0  0  0999 V2000
   13.2032   20.6306   59.2909 C   0  0  2  0  0  0  0  0  0  0  0  0
   12.2561   19.7953   58.4734 C   0  0  0  0  0  0  0  0  0  0  0  0
   11.6098   18.6934   59.2449 C   0  0  0  0  0  0  0  0  0  0  0  0
   10.9513   17.7575   58.2380 C   0  0  0  0  0  0  0  0  0  0  0  0
   11.9422   16.8932   57.5235 C   0  0  0  0  0  0  0  0  0  0  0  0
   16.7736   22.2145   55.7367 C   0  0  0  0  0  0  0  0  0  0  0  0
   16.9356   22.4892   54.4038 C   0  0  0  0  0  0  0  0  0  0  0  0
   15.9763   22.1564   53.4823 C   0  0  0  0  0  0  0  0  0  0  0  0
   14.8246   21.5243   53.9602 C   0  0  0  0  0  0  0  0  0  0  0  0
   14.6717   21.2532   55.2991 C   0  0  0  0  0  0  0  0  0  0  0  0
   15.6334   21.5857   56.2305 C   0  0  0  0  0  0  0  0  0  0  0  0
   12.9876   20.9710   61.7556 C   0  0  0  0  0  0  0  0  0  0  0  0
   11.1577   21.2947   63.3921 C   0  0  0  0  0  0  0  0  0  0  0  0
   12.5018   21.7570   62.9194 C   0  0  0  0  0  0  0  0  0  0  0  0
   11.2574   20.0542   64.2007 C   0  0  0  0  0  0  0  0  0  0  0  0
   13.1011   22.3323   57.2194 O   0  0  0  0  0  0  0  0  0  0  0  0
   14.4479   23.2515   59.2229 O   0  0  0  0  0  0  0  0  0  0  0  0
   15.4663   21.3060   57.5809 O   0  0  0  0  0  0  0  0  0  0  0  0
   13.7845   20.0192   61.9459 O   0  0  0  0  0  0  0  0  0  0  0  0
   11.3025   20.0450   65.4592 O   0  0  0  0  0  0  0  0  0  0  0  0
   11.3005   18.8511   63.4698 O   0  0  0  0  0  0  0  0  0  0  0  0
   12.5837   21.2544   60.4223 N   0  0  0  0  0  0  0  0  0  0  0  0
   14.0464   21.8850   58.3288 P   0  0  1  0  0  5  0  0  0  0  0  0
  1 23  1  0
  1 22  1  0
  1  2  1  6
  2  3  1  0
  3  4  1  0
  4  5  1  0
 22 12  1  0
 12 19  2  0
 12 14  1  0
 14 13  1  0
 13 15  1  0
 15 20  2  0
 15 21  1  0
 23 16  2  0
 23 17  1  1
 23 18  1  0
 18 11  1  0
 11 10  1  0
 11  6  2  0
  6  7  1  0
  7  8  2  0
  8  9  1  0
  9 10  2  0
M  END
$$$$
