1a0q_ligand
     RDKit          3D

 23 23  0  0  0  0  0  0  0  0999 V2000
   13.2923   20.6723   59.4430 C   0  0  2  0  0  0  0  0  0  0  0  0
   12.5333   19.6715   58.6151 C   0  0  0  0  0  0  0  0  0  0  0  0
   11.7615   18.6849   59.4263 C   0  0  0  0  0  0  0  0  0  0  0  0
   11.2496   17.6119   58.4723 C   0  0  0  0  0  0  0  0  0  0  0  0
   11.3440   18.0261   57.0375 C   0  0  0  0  0  0  0  0  0  0  0  0
   16.7219   22.1318   55.7333 C   0  0  0  0  0  0  0  0  0  0  0  0
   16.8168   22.2319   54.3698 C   0  0  0  0  0  0  0  0  0  0  0  0
   15.8419   21.7319   53.5454 C   0  0  0  0  0  0  0  0  0  0  0  0
   14.7456   21.1148   54.1550 C   0  0  0  0  0  0  0  0  0  0  0  0
   14.6598   21.0194   55.5237 C   0  0  0  0  0  0  0  0  0  0  0  0
   15.6375   21.5206   56.3578 C   0  0  0  0  0  0  0  0  0  0  0  0
   12.7792   21.1531   61.8393 C   0  0  0  0  0  0  0  0  0  0  0  0
   11.9059   21.0076   64.1518 C   0  0  0  0  0  0  0  0  0  0  0  0
   11.9703   21.8181   62.8938 C   0  0  0  0  0  0  0  0  0  0  0  0
   11.0554   19.8027   63.9851 C   0  0  0  0  0  0  0  0  0  0  0  0
   13.1304   22.3192   57.3313 O   0  0  0  0  0  0  0  0  0  0  0  0
   14.4095   23.3483   59.3257 O   0  0  0  0  0  0  0  0  0  0  0  0
   15.5384   21.4175   57.7396 O   0  0  0  0  0  0  0  0  0  0  0  0
   13.7524   20.4332   62.1733 O   0  0  0  0  0  0  0  0  0  0  0  0
   10.2491   19.6461   63.0306 O   0  0  0  0  0  0  0  0  0  0  0  0
   11.1984   18.8129   64.9767 O   0  0  0  0  0  0  0  0  0  0  0  0
   12.4943   21.2997   60.4542 N   0  0  0  0  0  0  0  0  0  0  0  0
   14.0842   21.9439   58.4600 P   0  0  1  0  0  5  0  0  0  0  0  0
  1 23  1  0
  1 22  1  0
  1  2  1  6
  2  3  1  0
  3  4  1  0
  4  5  1  0
 22 12  1  0
 12 19  2  0
 12 14  1  0
 14 13  1  0
 13 15  1  0
 15 20  2  0
 15 21  1  0
 23 16  2  0
 23 17  1  1
 23 18  1  0
 18 11  1  0
 11 10  1  0
 11  6  2  0
  6  7  1  0
  7  8  2  0
  8  9  1  0
  9 10  2  0
M  END
$$$$
