1a0q_ligand
     RDKit          3D

 23 23  0  0  0  0  0  0  0  0999 V2000
   13.2367   20.4295   59.3187 C   0  0  2  0  0  0  0  0  0  0  0  0
   12.3329   19.6217   58.4279 C   0  0  0  0  0  0  0  0  0  0  0  0
   11.6355   18.5071   59.1340 C   0  0  0  0  0  0  0  0  0  0  0  0
   10.9573   17.6488   58.0724 C   0  0  0  0  0  0  0  0  0  0  0  0
   11.9358   16.8628   57.2577 C   0  0  0  0  0  0  0  0  0  0  0  0
   16.7316   22.1658   55.7900 C   0  0  0  0  0  0  0  0  0  0  0  0
   16.8437   22.3917   54.4428 C   0  0  0  0  0  0  0  0  0  0  0  0
   15.8641   21.9997   53.5670 C   0  0  0  0  0  0  0  0  0  0  0  0
   14.7448   21.3593   54.1068 C   0  0  0  0  0  0  0  0  0  0  0  0
   14.6419   21.1374   55.4595 C   0  0  0  0  0  0  0  0  0  0  0  0
   15.6243   21.5295   56.3451 C   0  0  0  0  0  0  0  0  0  0  0  0
   13.0829   20.7473   61.7910 C   0  0  0  0  0  0  0  0  0  0  0  0
   12.2587   20.5114   64.1140 C   0  0  0  0  0  0  0  0  0  0  0  0
   12.5278   21.4491   62.9774 C   0  0  0  0  0  0  0  0  0  0  0  0
   11.0052   19.7441   63.9072 C   0  0  0  0  0  0  0  0  0  0  0  0
   13.1135   22.2607   57.3619 O   0  0  0  0  0  0  0  0  0  0  0  0
   14.3826   23.0926   59.4524 O   0  0  0  0  0  0  0  0  0  0  0  0
   15.5077   21.2992   57.7101 O   0  0  0  0  0  0  0  0  0  0  0  0
   14.0339   19.9413   61.9426 O   0  0  0  0  0  0  0  0  0  0  0  0
   10.8735   18.5297   64.2133 O   0  0  0  0  0  0  0  0  0  0  0  0
    9.9376   20.4622   63.3344 O   0  0  0  0  0  0  0  0  0  0  0  0
   12.5772   20.9524   60.4783 N   0  0  0  0  0  0  0  0  0  0  0  0
   14.0517   21.7751   58.4612 P   0  0  1  0  0  5  0  0  0  0  0  0
  1 23  1  0
  1 22  1  0
  1  2  1  6
  2  3  1  0
  3  4  1  0
  4  5  1  0
 22 12  1  0
 12 19  2  0
 12 14  1  0
 14 13  1  0
 13 15  1  0
 15 20  2  0
 15 21  1  0
 23 16  2  0
 23 17  1  1
 23 18  1  0
 18 11  1  0
 11 10  1  0
 11  6  2  0
  6  7  1  0
  7  8  2  0
  8  9  1  0
  9 10  2  0
M  END
$$$$
