1a0q_ligand
     RDKit          3D

 23 23  0  0  0  0  0  0  0  0999 V2000
   13.0487   20.4514   59.1599 C   0  0  2  0  0  0  0  0  0  0  0  0
   12.0827   19.7512   58.2436 C   0  0  0  0  0  0  0  0  0  0  0  0
   11.5071   18.5014   58.8213 C   0  0  0  0  0  0  0  0  0  0  0  0
   10.8059   17.7576   57.6906 C   0  0  0  0  0  0  0  0  0  0  0  0
   11.6894   16.7431   57.0353 C   0  0  0  0  0  0  0  0  0  0  0  0
   14.9764   21.1203   55.3366 C   0  0  0  0  0  0  0  0  0  0  0  0
   15.2839   21.4441   54.0408 C   0  0  0  0  0  0  0  0  0  0  0  0
   16.4185   22.1478   53.7285 C   0  0  0  0  0  0  0  0  0  0  0  0
   17.2496   22.5216   54.7886 C   0  0  0  0  0  0  0  0  0  0  0  0
   16.9323   22.1918   56.0849 C   0  0  0  0  0  0  0  0  0  0  0  0
   15.7922   21.4841   56.4049 C   0  0  0  0  0  0  0  0  0  0  0  0
   12.5880   20.4415   61.6145 C   0  0  0  0  0  0  0  0  0  0  0  0
   12.7469   21.4240   63.8818 C   0  0  0  0  0  0  0  0  0  0  0  0
   11.8365   20.9289   62.8002 C   0  0  0  0  0  0  0  0  0  0  0  0
   13.1782   22.8230   63.6380 C   0  0  0  0  0  0  0  0  0  0  0  0
   13.1789   22.2294   57.1551 O   0  0  0  0  0  0  0  0  0  0  0  0
   14.3203   23.0553   59.3203 O   0  0  0  0  0  0  0  0  0  0  0  0
   15.4834   21.1574   57.7193 O   0  0  0  0  0  0  0  0  0  0  0  0
   13.3968   19.4901   61.7475 O   0  0  0  0  0  0  0  0  0  0  0  0
   12.4206   23.7139   63.1709 O   0  0  0  0  0  0  0  0  0  0  0  0
   14.5168   23.1147   63.9645 O   0  0  0  0  0  0  0  0  0  0  0  0
   12.4279   21.0132   60.3228 N   0  0  0  0  0  0  0  0  0  0  0  0
   13.9996   21.7284   58.3383 P   0  0  1  0  0  5  0  0  0  0  0  0
  1 23  1  0
  1 22  1  0
  1  2  1  6
  2  3  1  0
  3  4  1  0
  4  5  1  0
 22 12  1  0
 12 19  2  0
 12 14  1  0
 14 13  1  0
 13 15  1  0
 15 20  2  0
 15 21  1  0
 23 16  2  0
 23 17  1  1
 23 18  1  0
 18 11  1  0
 11 10  1  0
 11  6  2  0
  6  7  1  0
  7  8  2  0
  8  9  1  0
  9 10  2  0
M  END
$$$$
