1a0q_ligand
     RDKit          3D

 23 23  0  0  0  0  0  0  0  0999 V2000
   12.9288   20.5281   59.4162 C   0  0  2  0  0  0  0  0  0  0  0  0
   11.6915   20.0231   58.7256 C   0  0  0  0  0  0  0  0  0  0  0  0
   11.1967   18.7202   59.2590 C   0  0  0  0  0  0  0  0  0  0  0  0
   10.7009   17.9010   58.0730 C   0  0  0  0  0  0  0  0  0  0  0  0
   11.7721   17.0396   57.4816 C   0  0  0  0  0  0  0  0  0  0  0  0
   14.5716   21.2548   55.3734 C   0  0  0  0  0  0  0  0  0  0  0  0
   14.8271   21.6274   54.0795 C   0  0  0  0  0  0  0  0  0  0  0  0
   16.0011   22.2440   53.7304 C   0  0  0  0  0  0  0  0  0  0  0  0
   16.9275   22.4768   54.7511 C   0  0  0  0  0  0  0  0  0  0  0  0
   16.6616   22.0992   56.0459 C   0  0  0  0  0  0  0  0  0  0  0  0
   15.4824   21.4786   56.4028 C   0  0  0  0  0  0  0  0  0  0  0  0
   13.3063   20.5519   61.8848 C   0  0  0  0  0  0  0  0  0  0  0  0
   12.7960   22.6057   63.1705 C   0  0  0  0  0  0  0  0  0  0  0  0
   13.0901   21.1383   63.2331 C   0  0  0  0  0  0  0  0  0  0  0  0
   11.4613   22.9223   63.7372 C   0  0  0  0  0  0  0  0  0  0  0  0
   12.9070   22.2226   57.3364 O   0  0  0  0  0  0  0  0  0  0  0  0
   14.2801   23.0955   59.3428 O   0  0  0  0  0  0  0  0  0  0  0  0
   15.2263   21.1021   57.7152 O   0  0  0  0  0  0  0  0  0  0  0  0
   14.0723   19.5647   61.7593 O   0  0  0  0  0  0  0  0  0  0  0  0
   10.6598   22.0485   64.1613 O   0  0  0  0  0  0  0  0  0  0  0  0
   11.1247   24.2892   63.7790 O   0  0  0  0  0  0  0  0  0  0  0  0
   12.6758   21.0672   60.7195 N   0  0  0  0  0  0  0  0  0  0  0  0
   13.8276   21.7423   58.4529 P   0  0  1  0  0  5  0  0  0  0  0  0
  1 23  1  0
  1 22  1  0
  1  2  1  6
  2  3  1  0
  3  4  1  0
  4  5  1  0
 22 12  1  0
 12 19  2  0
 12 14  1  0
 14 13  1  0
 13 15  1  0
 15 20  2  0
 15 21  1  0
 23 16  2  0
 23 17  1  1
 23 18  1  0
 18 11  1  0
 11 10  1  0
 11  6  2  0
  6  7  1  0
  7  8  2  0
  8  9  1  0
  9 10  2  0
M  END
$$$$
