1a0q_ligand
     RDKit          3D

 23 23  0  0  0  0  0  0  0  0999 V2000
   13.1462   20.5551   59.2273 C   0  0  2  0  0  0  0  0  0  0  0  0
   12.2814   19.6628   58.3794 C   0  0  0  0  0  0  0  0  0  0  0  0
   11.4287   18.7273   59.1700 C   0  0  0  0  0  0  0  0  0  0  0  0
   11.2502   17.4615   58.3397 C   0  0  0  0  0  0  0  0  0  0  0  0
   11.4056   17.7101   56.8723 C   0  0  0  0  0  0  0  0  0  0  0  0
   14.8588   21.0061   55.3465 C   0  0  0  0  0  0  0  0  0  0  0  0
   15.0929   21.1805   54.0074 C   0  0  0  0  0  0  0  0  0  0  0  0
   16.2082   21.8376   53.5550 C   0  0  0  0  0  0  0  0  0  0  0  0
   17.0975   22.3227   54.5184 C   0  0  0  0  0  0  0  0  0  0  0  0
   16.8536   22.1425   55.8592 C   0  0  0  0  0  0  0  0  0  0  0  0
   15.7334   21.4824   56.3199 C   0  0  0  0  0  0  0  0  0  0  0  0
   12.8053   20.9716   61.6660 C   0  0  0  0  0  0  0  0  0  0  0  0
   10.9202   20.9295   63.2710 C   0  0  0  0  0  0  0  0  0  0  0  0
   12.1281   21.6721   62.7881 C   0  0  0  0  0  0  0  0  0  0  0  0
   11.2780   19.8883   64.2663 C   0  0  0  0  0  0  0  0  0  0  0  0
   13.1146   22.1666   57.0827 O   0  0  0  0  0  0  0  0  0  0  0  0
   14.2323   23.2453   59.1467 O   0  0  0  0  0  0  0  0  0  0  0  0
   15.4990   21.3071   57.6779 O   0  0  0  0  0  0  0  0  0  0  0  0
   13.7364   20.1668   61.9161 O   0  0  0  0  0  0  0  0  0  0  0  0
   12.4431   19.7257   64.7158 O   0  0  0  0  0  0  0  0  0  0  0  0
   10.2188   19.0660   64.6969 O   0  0  0  0  0  0  0  0  0  0  0  0
   12.4394   21.1766   60.3077 N   0  0  0  0  0  0  0  0  0  0  0  0
   13.9895   21.8229   58.2830 P   0  0  1  0  0  5  0  0  0  0  0  0
  1 23  1  0
  1 22  1  0
  1  2  1  6
  2  3  1  0
  3  4  1  0
  4  5  1  0
 22 12  1  0
 12 19  2  0
 12 14  1  0
 14 13  1  0
 13 15  1  0
 15 20  2  0
 15 21  1  0
 23 16  2  0
 23 17  1  1
 23 18  1  0
 18 11  1  0
 11 10  1  0
 11  6  2  0
  6  7  1  0
  7  8  2  0
  8  9  1  0
  9 10  2  0
M  END
$$$$
