1a0q_ligand
     RDKit          3D

 23 23  0  0  0  0  0  0  0  0999 V2000
   13.0524   20.4219   59.1690 C   0  0  2  0  0  0  0  0  0  0  0  0
   12.0868   19.7239   58.2506 C   0  0  0  0  0  0  0  0  0  0  0  0
   11.3635   18.5874   58.8928 C   0  0  0  0  0  0  0  0  0  0  0  0
   10.6705   17.8037   57.7842 C   0  0  0  0  0  0  0  0  0  0  0  0
   11.5692   16.7897   57.1491 C   0  0  0  0  0  0  0  0  0  0  0  0
   16.9809   21.9419   55.9920 C   0  0  0  0  0  0  0  0  0  0  0  0
   17.2522   22.1790   54.6696 C   0  0  0  0  0  0  0  0  0  0  0  0
   16.3410   21.8854   53.6879 C   0  0  0  0  0  0  0  0  0  0  0  0
   15.1222   21.3335   54.0931 C   0  0  0  0  0  0  0  0  0  0  0  0
   14.8598   21.0996   55.4220 C   0  0  0  0  0  0  0  0  0  0  0  0
   15.7727   21.3929   56.4138 C   0  0  0  0  0  0  0  0  0  0  0  0
   12.6942   20.4712   61.6401 C   0  0  0  0  0  0  0  0  0  0  0  0
   12.8681   20.9784   64.0575 C   0  0  0  0  0  0  0  0  0  0  0  0
   11.9874   20.9760   62.8459 C   0  0  0  0  0  0  0  0  0  0  0  0
   13.7618   22.1631   64.0837 C   0  0  0  0  0  0  0  0  0  0  0  0
   13.1841   22.1933   57.1585 O   0  0  0  0  0  0  0  0  0  0  0  0
   14.2907   23.0415   59.3331 O   0  0  0  0  0  0  0  0  0  0  0  0
   15.4947   21.1515   57.7533 O   0  0  0  0  0  0  0  0  0  0  0  0
   13.5563   19.5669   61.7662 O   0  0  0  0  0  0  0  0  0  0  0  0
   13.4624   23.2726   63.5687 O   0  0  0  0  0  0  0  0  0  0  0  0
   14.9985   21.9804   64.7322 O   0  0  0  0  0  0  0  0  0  0  0  0
   12.4324   20.9746   60.3366 N   0  0  0  0  0  0  0  0  0  0  0  0
   13.9973   21.7069   58.3530 P   0  0  1  0  0  5  0  0  0  0  0  0
  1 23  1  0
  1 22  1  0
  1  2  1  6
  2  3  1  0
  3  4  1  0
  4  5  1  0
 22 12  1  0
 12 19  2  0
 12 14  1  0
 14 13  1  0
 13 15  1  0
 15 20  2  0
 15 21  1  0
 23 16  2  0
 23 17  1  1
 23 18  1  0
 18 11  1  0
 11 10  1  0
 11  6  2  0
  6  7  1  0
  7  8  2  0
  8  9  1  0
  9 10  2  0
M  END
$$$$
