1a0q_ligand
     RDKit          3D

 23 23  0  0  0  0  0  0  0  0999 V2000
   13.1475   20.6180   59.2633 C   0  0  2  0  0  0  0  0  0  0  0  0
   12.1443   19.8666   58.4314 C   0  0  0  0  0  0  0  0  0  0  0  0
   11.5858   18.6605   59.1101 C   0  0  0  0  0  0  0  0  0  0  0  0
   10.9719   17.7745   58.0323 C   0  0  0  0  0  0  0  0  0  0  0  0
   11.8651   16.6381   57.6451 C   0  0  0  0  0  0  0  0  0  0  0  0
   16.8299   22.0191   55.7664 C   0  0  0  0  0  0  0  0  0  0  0  0
   17.0289   22.2966   54.4390 C   0  0  0  0  0  0  0  0  0  0  0  0
   16.0953   21.9665   53.4906 C   0  0  0  0  0  0  0  0  0  0  0  0
   14.9304   21.3342   53.9351 C   0  0  0  0  0  0  0  0  0  0  0  0
   14.7403   21.0602   55.2687 C   0  0  0  0  0  0  0  0  0  0  0  0
   15.6761   21.3900   56.2271 C   0  0  0  0  0  0  0  0  0  0  0  0
   12.9840   21.0177   61.7231 C   0  0  0  0  0  0  0  0  0  0  0  0
   11.2558   21.2872   63.4757 C   0  0  0  0  0  0  0  0  0  0  0  0
   12.5205   21.8259   62.8808 C   0  0  0  0  0  0  0  0  0  0  0  0
   11.4856   20.0023   64.1820 C   0  0  0  0  0  0  0  0  0  0  0  0
   13.2066   22.3382   57.2055 O   0  0  0  0  0  0  0  0  0  0  0  0
   14.6155   23.1212   59.2241 O   0  0  0  0  0  0  0  0  0  0  0  0
   15.4714   21.1075   57.5717 O   0  0  0  0  0  0  0  0  0  0  0  0
   13.7719   20.0594   61.9182 O   0  0  0  0  0  0  0  0  0  0  0  0
   12.3801   19.8367   65.0528 O   0  0  0  0  0  0  0  0  0  0  0  0
   10.6284   18.9451   63.8200 O   0  0  0  0  0  0  0  0  0  0  0  0
   12.5685   21.2868   60.3904 N   0  0  0  0  0  0  0  0  0  0  0  0
   14.1025   21.8018   58.3164 P   0  0  1  0  0  5  0  0  0  0  0  0
  1 23  1  0
  1 22  1  0
  1  2  1  6
  2  3  1  0
  3  4  1  0
  4  5  1  0
 22 12  1  0
 12 19  2  0
 12 14  1  0
 14 13  1  0
 13 15  1  0
 15 20  2  0
 15 21  1  0
 23 16  2  0
 23 17  1  1
 23 18  1  0
 18 11  1  0
 11 10  1  0
 11  6  2  0
  6  7  1  0
  7  8  2  0
  8  9  1  0
  9 10  2  0
M  END
$$$$
