1a0q_ligand
     RDKit          3D

 23 23  0  0  0  0  0  0  0  0999 V2000
   13.2619   20.4122   59.3296 C   0  0  2  0  0  0  0  0  0  0  0  0
   12.5508   19.4259   58.4438 C   0  0  0  0  0  0  0  0  0  0  0  0
   11.5282   18.6070   59.1585 C   0  0  0  0  0  0  0  0  0  0  0  0
   11.4545   17.2559   58.4566 C   0  0  0  0  0  0  0  0  0  0  0  0
   11.4169   17.3840   56.9662 C   0  0  0  0  0  0  0  0  0  0  0  0
   16.7862   22.1313   55.8058 C   0  0  0  0  0  0  0  0  0  0  0  0
   16.9299   22.3930   54.4682 C   0  0  0  0  0  0  0  0  0  0  0  0
   15.9817   22.0052   53.5567 C   0  0  0  0  0  0  0  0  0  0  0  0
   14.8608   21.3308   54.0499 C   0  0  0  0  0  0  0  0  0  0  0  0
   14.7261   21.0732   55.3934 C   0  0  0  0  0  0  0  0  0  0  0  0
   15.6767   21.4609   56.3148 C   0  0  0  0  0  0  0  0  0  0  0  0
   12.6257   20.8124   61.7111 C   0  0  0  0  0  0  0  0  0  0  0  0
   11.8154   20.7137   64.0489 C   0  0  0  0  0  0  0  0  0  0  0  0
   11.7681   21.4487   62.7446 C   0  0  0  0  0  0  0  0  0  0  0  0
   12.7634   21.3452   65.0003 C   0  0  0  0  0  0  0  0  0  0  0  0
   13.1420   22.1699   57.3063 O   0  0  0  0  0  0  0  0  0  0  0  0
   14.4392   23.0648   59.3531 O   0  0  0  0  0  0  0  0  0  0  0  0
   15.5282   21.1942   57.6700 O   0  0  0  0  0  0  0  0  0  0  0  0
   13.5759   20.0741   62.0702 O   0  0  0  0  0  0  0  0  0  0  0  0
   13.0912   20.8302   66.1018 O   0  0  0  0  0  0  0  0  0  0  0  0
   13.2947   22.5863   64.5992 O   0  0  0  0  0  0  0  0  0  0  0  0
   12.4131   21.0068   60.3190 N   0  0  0  0  0  0  0  0  0  0  0  0
   14.0845   21.7149   58.4151 P   0  0  1  0  0  5  0  0  0  0  0  0
  1 23  1  0
  1 22  1  0
  1  2  1  6
  2  3  1  0
  3  4  1  0
  4  5  1  0
 22 12  1  0
 12 19  2  0
 12 14  1  0
 14 13  1  0
 13 15  1  0
 15 20  2  0
 15 21  1  0
 23 16  2  0
 23 17  1  1
 23 18  1  0
 18 11  1  0
 11 10  1  0
 11  6  2  0
  6  7  1  0
  7  8  2  0
  8  9  1  0
  9 10  2  0
M  END
$$$$
