1a0q_ligand
     RDKit          3D

 23 23  0  0  0  0  0  0  0  0999 V2000
   13.0828   20.4758   59.2536 C   0  0  2  0  0  0  0  0  0  0  0  0
   12.1008   19.7020   58.4169 C   0  0  0  0  0  0  0  0  0  0  0  0
   11.4597   18.5661   59.1421 C   0  0  0  0  0  0  0  0  0  0  0  0
   10.7170   17.7270   58.1087 C   0  0  0  0  0  0  0  0  0  0  0  0
   11.5809   16.6670   57.5010 C   0  0  0  0  0  0  0  0  0  0  0  0
   14.8054   21.1073   55.0899 C   0  0  0  0  0  0  0  0  0  0  0  0
   15.1263   21.5758   53.8425 C   0  0  0  0  0  0  0  0  0  0  0  0
   16.3239   22.1970   53.5972 C   0  0  0  0  0  0  0  0  0  0  0  0
   17.2048   22.3325   54.6742 C   0  0  0  0  0  0  0  0  0  0  0  0
   16.8734   21.8592   55.9215 C   0  0  0  0  0  0  0  0  0  0  0  0
   15.6702   21.2335   56.1741 C   0  0  0  0  0  0  0  0  0  0  0  0
   12.7152   20.9376   61.6803 C   0  0  0  0  0  0  0  0  0  0  0  0
   11.4950   20.9388   63.8349 C   0  0  0  0  0  0  0  0  0  0  0  0
   12.1606   21.7686   62.7804 C   0  0  0  0  0  0  0  0  0  0  0  0
   12.4128   20.6478   64.9644 C   0  0  0  0  0  0  0  0  0  0  0  0
   13.2270   22.2585   57.2539 O   0  0  0  0  0  0  0  0  0  0  0  0
   14.8316   22.7915   59.2069 O   0  0  0  0  0  0  0  0  0  0  0  0
   15.3477   20.7598   57.4395 O   0  0  0  0  0  0  0  0  0  0  0  0
   13.4295   19.9436   61.9607 O   0  0  0  0  0  0  0  0  0  0  0  0
   12.1765   19.7827   65.8485 O   0  0  0  0  0  0  0  0  0  0  0  0
   13.5969   21.4094   65.0004 O   0  0  0  0  0  0  0  0  0  0  0  0
   12.4682   21.2240   60.3099 N   0  0  0  0  0  0  0  0  0  0  0  0
   14.1153   21.5778   58.2894 P   0  0  1  0  0  5  0  0  0  0  0  0
  1 23  1  0
  1 22  1  0
  1  2  1  6
  2  3  1  0
  3  4  1  0
  4  5  1  0
 22 12  1  0
 12 19  2  0
 12 14  1  0
 14 13  1  0
 13 15  1  0
 15 20  2  0
 15 21  1  0
 23 16  2  0
 23 17  1  1
 23 18  1  0
 18 11  1  0
 11 10  1  0
 11  6  2  0
  6  7  1  0
  7  8  2  0
  8  9  1  0
  9 10  2  0
M  END
$$$$
