1a0q_ligand
     RDKit          3D

 23 23  0  0  0  0  0  0  0  0999 V2000
   13.2735   20.5724   59.3263 C   0  0  2  0  0  0  0  0  0  0  0  0
   12.4161   19.6610   58.4913 C   0  0  0  0  0  0  0  0  0  0  0  0
   11.6351   18.6729   59.2917 C   0  0  0  0  0  0  0  0  0  0  0  0
   11.4792   17.4182   58.4402 C   0  0  0  0  0  0  0  0  0  0  0  0
   11.4971   17.7134   56.9734 C   0  0  0  0  0  0  0  0  0  0  0  0
   16.8583   22.1812   55.8064 C   0  0  0  0  0  0  0  0  0  0  0  0
   17.0257   22.3438   54.4559 C   0  0  0  0  0  0  0  0  0  0  0  0
   16.0814   21.9124   53.5602 C   0  0  0  0  0  0  0  0  0  0  0  0
   14.9392   21.2989   54.0831 C   0  0  0  0  0  0  0  0  0  0  0  0
   14.7808   21.1405   55.4394 C   0  0  0  0  0  0  0  0  0  0  0  0
   15.7274   21.5726   56.3451 C   0  0  0  0  0  0  0  0  0  0  0  0
   12.9208   20.8797   61.7795 C   0  0  0  0  0  0  0  0  0  0  0  0
   11.1784   21.0637   63.5293 C   0  0  0  0  0  0  0  0  0  0  0  0
   12.4002   21.6790   62.9191 C   0  0  0  0  0  0  0  0  0  0  0  0
   11.4985   19.8052   64.2478 C   0  0  0  0  0  0  0  0  0  0  0  0
   13.1313   22.2116   57.2073 O   0  0  0  0  0  0  0  0  0  0  0  0
   14.2874   23.2907   59.2499 O   0  0  0  0  0  0  0  0  0  0  0  0
   15.5549   21.4063   57.7134 O   0  0  0  0  0  0  0  0  0  0  0  0
   13.6955   19.9178   62.0063 O   0  0  0  0  0  0  0  0  0  0  0  0
   11.0502   18.6776   63.9109 O   0  0  0  0  0  0  0  0  0  0  0  0
   12.3541   19.9373   65.3586 O   0  0  0  0  0  0  0  0  0  0  0  0
   12.5747   21.1617   60.4298 N   0  0  0  0  0  0  0  0  0  0  0  0
   14.0532   21.8744   58.3740 P   0  0  1  0  0  5  0  0  0  0  0  0
  1 23  1  0
  1 22  1  0
  1  2  1  6
  2  3  1  0
  3  4  1  0
  4  5  1  0
 22 12  1  0
 12 19  2  0
 12 14  1  0
 14 13  1  0
 13 15  1  0
 15 20  2  0
 15 21  1  0
 23 16  2  0
 23 17  1  1
 23 18  1  0
 18 11  1  0
 11 10  1  0
 11  6  2  0
  6  7  1  0
  7  8  2  0
  8  9  1  0
  9 10  2  0
M  END
$$$$
