1a0q_ligand
     RDKit          3D

 23 23  0  0  0  0  0  0  0  0999 V2000
   13.1415   20.5609   59.2389 C   0  0  2  0  0  0  0  0  0  0  0  0
   12.1957   19.7347   58.4106 C   0  0  0  0  0  0  0  0  0  0  0  0
   11.5462   18.6259   59.1694 C   0  0  0  0  0  0  0  0  0  0  0  0
   10.8720   17.7119   58.1528 C   0  0  0  0  0  0  0  0  0  0  0  0
   11.8476   17.0889   57.2045 C   0  0  0  0  0  0  0  0  0  0  0  0
   16.7771   22.2020   55.7765 C   0  0  0  0  0  0  0  0  0  0  0  0
   16.9723   22.4875   54.4503 C   0  0  0  0  0  0  0  0  0  0  0  0
   16.0451   22.1448   53.5000 C   0  0  0  0  0  0  0  0  0  0  0  0
   14.8909   21.4911   53.9413 C   0  0  0  0  0  0  0  0  0  0  0  0
   14.7046   21.2092   55.2738 C   0  0  0  0  0  0  0  0  0  0  0  0
   15.6339   21.5516   56.2341 C   0  0  0  0  0  0  0  0  0  0  0  0
   12.8918   20.8486   61.7070 C   0  0  0  0  0  0  0  0  0  0  0  0
   11.0821   21.1140   63.3761 C   0  0  0  0  0  0  0  0  0  0  0  0
   12.4034   21.6171   62.8815 C   0  0  0  0  0  0  0  0  0  0  0  0
   11.2174   19.8107   64.0730 C   0  0  0  0  0  0  0  0  0  0  0  0
   13.0632   22.2541   57.1594 O   0  0  0  0  0  0  0  0  0  0  0  0
   14.3523   23.1980   59.1892 O   0  0  0  0  0  0  0  0  0  0  0  0
   15.4331   21.2608   57.5775 O   0  0  0  0  0  0  0  0  0  0  0  0
   13.6623   19.8735   61.8875 O   0  0  0  0  0  0  0  0  0  0  0  0
   12.1649   19.5343   64.8552 O   0  0  0  0  0  0  0  0  0  0  0  0
   10.2036   18.8694   63.8091 O   0  0  0  0  0  0  0  0  0  0  0  0
   12.5194   21.1747   60.3744 N   0  0  0  0  0  0  0  0  0  0  0  0
   13.9892   21.8232   58.2914 P   0  0  1  0  0  5  0  0  0  0  0  0
  1 23  1  0
  1 22  1  0
  1  2  1  6
  2  3  1  0
  3  4  1  0
  4  5  1  0
 22 12  1  0
 12 19  2  0
 12 14  1  0
 14 13  1  0
 13 15  1  0
 15 20  2  0
 15 21  1  0
 23 16  2  0
 23 17  1  1
 23 18  1  0
 18 11  1  0
 11 10  1  0
 11  6  2  0
  6  7  1  0
  7  8  2  0
  8  9  1  0
  9 10  2  0
M  END
$$$$
