1a0q_ligand
     RDKit          3D

 23 23  0  0  0  0  0  0  0  0999 V2000
   13.0746   20.6385   59.1811 C   0  0  2  0  0  0  0  0  0  0  0  0
   12.1328   19.8725   58.2927 C   0  0  0  0  0  0  0  0  0  0  0  0
   11.3607   18.8146   59.0082 C   0  0  0  0  0  0  0  0  0  0  0  0
   10.8588   17.8288   57.9595 C   0  0  0  0  0  0  0  0  0  0  0  0
   11.9621   17.0115   57.3646 C   0  0  0  0  0  0  0  0  0  0  0  0
   16.9139   22.0865   55.8989 C   0  0  0  0  0  0  0  0  0  0  0  0
   17.1912   22.3818   54.5896 C   0  0  0  0  0  0  0  0  0  0  0  0
   16.3472   22.0057   53.5764 C   0  0  0  0  0  0  0  0  0  0  0  0
   15.1905   21.3075   53.9356 C   0  0  0  0  0  0  0  0  0  0  0  0
   14.9215   21.0162   55.2518 C   0  0  0  0  0  0  0  0  0  0  0  0
   15.7669   21.3920   56.2751 C   0  0  0  0  0  0  0  0  0  0  0  0
   12.7470   21.0881   61.6157 C   0  0  0  0  0  0  0  0  0  0  0  0
   11.5500   20.9985   63.7815 C   0  0  0  0  0  0  0  0  0  0  0  0
   12.1535   21.8753   62.7277 C   0  0  0  0  0  0  0  0  0  0  0  0
   12.5723   20.5104   64.7404 C   0  0  0  0  0  0  0  0  0  0  0  0
   13.2607   22.3651   57.1361 O   0  0  0  0  0  0  0  0  0  0  0  0
   14.5885   23.1143   59.2214 O   0  0  0  0  0  0  0  0  0  0  0  0
   15.4831   21.0912   57.6012 O   0  0  0  0  0  0  0  0  0  0  0  0
   13.5713   20.1779   61.8784 O   0  0  0  0  0  0  0  0  0  0  0  0
   13.6527   21.1138   64.9736 O   0  0  0  0  0  0  0  0  0  0  0  0
   12.2658   19.3027   65.3970 O   0  0  0  0  0  0  0  0  0  0  0  0
   12.4172   21.3250   60.2533 N   0  0  0  0  0  0  0  0  0  0  0  0
   14.0940   21.8080   58.2849 P   0  0  1  0  0  5  0  0  0  0  0  0
  1 23  1  0
  1 22  1  0
  1  2  1  6
  2  3  1  0
  3  4  1  0
  4  5  1  0
 22 12  1  0
 12 19  2  0
 12 14  1  0
 14 13  1  0
 13 15  1  0
 15 20  2  0
 15 21  1  0
 23 16  2  0
 23 17  1  1
 23 18  1  0
 18 11  1  0
 11 10  1  0
 11  6  2  0
  6  7  1  0
  7  8  2  0
  8  9  1  0
  9 10  2  0
M  END
$$$$
