1a0q_ligand
     RDKit          3D

 23 23  0  0  0  0  0  0  0  0999 V2000
   13.0417   20.5547   59.2386 C   0  0  2  0  0  0  0  0  0  0  0  0
   12.2214   19.6837   58.3268 C   0  0  0  0  0  0  0  0  0  0  0  0
   11.3439   18.7174   59.0502 C   0  0  0  0  0  0  0  0  0  0  0  0
   10.7455   17.7780   58.0095 C   0  0  0  0  0  0  0  0  0  0  0  0
   11.7789   16.9242   57.3444 C   0  0  0  0  0  0  0  0  0  0  0  0
   16.7946   22.1293   55.8945 C   0  0  0  0  0  0  0  0  0  0  0  0
   17.0132   22.3522   54.5600 C   0  0  0  0  0  0  0  0  0  0  0  0
   16.1065   21.9574   53.6101 C   0  0  0  0  0  0  0  0  0  0  0  0
   14.9484   21.3171   54.0607 C   0  0  0  0  0  0  0  0  0  0  0  0
   14.7386   21.0982   55.4015 C   0  0  0  0  0  0  0  0  0  0  0  0
   15.6471   21.4932   56.3614 C   0  0  0  0  0  0  0  0  0  0  0  0
   12.4532   20.8169   61.6515 C   0  0  0  0  0  0  0  0  0  0  0  0
   11.8499   20.7865   64.0528 C   0  0  0  0  0  0  0  0  0  0  0  0
   11.7441   21.5207   62.7516 C   0  0  0  0  0  0  0  0  0  0  0  0
   12.9422   21.3265   64.9002 C   0  0  0  0  0  0  0  0  0  0  0  0
   13.0883   22.2978   57.1998 O   0  0  0  0  0  0  0  0  0  0  0  0
   14.2826   23.1771   59.3148 O   0  0  0  0  0  0  0  0  0  0  0  0
   15.4227   21.2658   57.7133 O   0  0  0  0  0  0  0  0  0  0  0  0
   13.2393   19.8776   61.9286 O   0  0  0  0  0  0  0  0  0  0  0  0
   13.3021   20.8049   65.9884 O   0  0  0  0  0  0  0  0  0  0  0  0
   13.5759   22.4861   64.4131 O   0  0  0  0  0  0  0  0  0  0  0  0
   12.2770   21.1662   60.2848 N   0  0  0  0  0  0  0  0  0  0  0  0
   13.9506   21.8287   58.3664 P   0  0  1  0  0  5  0  0  0  0  0  0
  1 23  1  0
  1 22  1  0
  1  2  1  6
  2  3  1  0
  3  4  1  0
  4  5  1  0
 22 12  1  0
 12 19  2  0
 12 14  1  0
 14 13  1  0
 13 15  1  0
 15 20  2  0
 15 21  1  0
 23 16  2  0
 23 17  1  1
 23 18  1  0
 18 11  1  0
 11 10  1  0
 11  6  2  0
  6  7  1  0
  7  8  2  0
  8  9  1  0
  9 10  2  0
M  END
$$$$
