1a0q_ligand
     RDKit          3D

 23 23  0  0  0  0  0  0  0  0999 V2000
   12.8874   20.4058   59.1974 C   0  0  2  0  0  0  0  0  0  0  0  0
   11.8230   19.7536   58.3579 C   0  0  0  0  0  0  0  0  0  0  0  0
   11.2652   18.5069   58.9594 C   0  0  0  0  0  0  0  0  0  0  0  0
   10.7563   17.6373   57.8156 C   0  0  0  0  0  0  0  0  0  0  0  0
   11.8171   16.7398   57.2602 C   0  0  0  0  0  0  0  0  0  0  0  0
   14.8507   21.0921   55.2623 C   0  0  0  0  0  0  0  0  0  0  0  0
   15.2180   21.4720   53.9977 C   0  0  0  0  0  0  0  0  0  0  0  0
   16.4246   22.0760   53.7535 C   0  0  0  0  0  0  0  0  0  0  0  0
   17.2653   22.2882   54.8500 C   0  0  0  0  0  0  0  0  0  0  0  0
   16.8876   21.9034   56.1145 C   0  0  0  0  0  0  0  0  0  0  0  0
   15.6751   21.2955   56.3660 C   0  0  0  0  0  0  0  0  0  0  0  0
   12.7141   20.5901   61.6819 C   0  0  0  0  0  0  0  0  0  0  0  0
   12.9402   20.8665   64.1322 C   0  0  0  0  0  0  0  0  0  0  0  0
   12.1455   21.2064   62.9088 C   0  0  0  0  0  0  0  0  0  0  0  0
   13.9860   21.8831   64.4070 C   0  0  0  0  0  0  0  0  0  0  0  0
   13.0432   22.0800   57.1069 O   0  0  0  0  0  0  0  0  0  0  0  0
   14.2993   22.9414   59.1933 O   0  0  0  0  0  0  0  0  0  0  0  0
   15.3057   20.9116   57.6489 O   0  0  0  0  0  0  0  0  0  0  0  0
   13.5236   19.6363   61.7914 O   0  0  0  0  0  0  0  0  0  0  0  0
   14.0441   22.9976   63.8235 O   0  0  0  0  0  0  0  0  0  0  0  0
   14.9393   21.5299   65.3816 O   0  0  0  0  0  0  0  0  0  0  0  0
   12.3763   21.0399   60.3763 N   0  0  0  0  0  0  0  0  0  0  0  0
   13.8760   21.5901   58.2863 P   0  0  1  0  0  5  0  0  0  0  0  0
  1 23  1  0
  1 22  1  0
  1  2  1  6
  2  3  1  0
  3  4  1  0
  4  5  1  0
 22 12  1  0
 12 19  2  0
 12 14  1  0
 14 13  1  0
 13 15  1  0
 15 20  2  0
 15 21  1  0
 23 16  2  0
 23 17  1  1
 23 18  1  0
 18 11  1  0
 11 10  1  0
 11  6  2  0
  6  7  1  0
  7  8  2  0
  8  9  1  0
  9 10  2  0
M  END
$$$$
