1a0q_ligand
     RDKit          3D

 23 23  0  0  0  0  0  0  0  0999 V2000
   13.0680   20.5427   59.2049 C   0  0  2  0  0  0  0  0  0  0  0  0
   12.2277   19.6978   58.2866 C   0  0  0  0  0  0  0  0  0  0  0  0
   11.4280   18.6558   58.9950 C   0  0  0  0  0  0  0  0  0  0  0  0
   10.8201   17.7475   57.9325 C   0  0  0  0  0  0  0  0  0  0  0  0
   11.8523   16.9498   57.1994 C   0  0  0  0  0  0  0  0  0  0  0  0
   14.6824   21.2474   55.4856 C   0  0  0  0  0  0  0  0  0  0  0  0
   14.9034   21.3421   54.1363 C   0  0  0  0  0  0  0  0  0  0  0  0
   16.1128   21.7504   53.6356 C   0  0  0  0  0  0  0  0  0  0  0  0
   17.1123   22.0665   54.5605 C   0  0  0  0  0  0  0  0  0  0  0  0
   16.8806   21.9682   55.9120 C   0  0  0  0  0  0  0  0  0  0  0  0
   15.6660   21.5580   56.4212 C   0  0  0  0  0  0  0  0  0  0  0  0
   12.5983   20.6594   61.6549 C   0  0  0  0  0  0  0  0  0  0  0  0
   12.0946   20.4540   64.0706 C   0  0  0  0  0  0  0  0  0  0  0  0
   11.9055   21.2619   62.8235 C   0  0  0  0  0  0  0  0  0  0  0  0
   13.3425   20.8271   64.7820 C   0  0  0  0  0  0  0  0  0  0  0  0
   13.0529   22.2659   57.1487 O   0  0  0  0  0  0  0  0  0  0  0  0
   14.0518   23.2711   59.3084 O   0  0  0  0  0  0  0  0  0  0  0  0
   15.4451   21.4630   57.7894 O   0  0  0  0  0  0  0  0  0  0  0  0
   13.4451   19.7514   61.8432 O   0  0  0  0  0  0  0  0  0  0  0  0
   14.0588   21.8121   64.4616 O   0  0  0  0  0  0  0  0  0  0  0  0
   13.6975   20.0008   65.8658 O   0  0  0  0  0  0  0  0  0  0  0  0
   12.3398   21.0725   60.3194 N   0  0  0  0  0  0  0  0  0  0  0  0
   13.8958   21.8898   58.3622 P   0  0  1  0  0  5  0  0  0  0  0  0
  1 23  1  0
  1 22  1  0
  1  2  1  6
  2  3  1  0
  3  4  1  0
  4  5  1  0
 22 12  1  0
 12 19  2  0
 12 14  1  0
 14 13  1  0
 13 15  1  0
 15 20  2  0
 15 21  1  0
 23 16  2  0
 23 17  1  1
 23 18  1  0
 18 11  1  0
 11 10  1  0
 11  6  2  0
  6  7  1  0
  7  8  2  0
  8  9  1  0
  9 10  2  0
M  END
$$$$
