1a0q_ligand
     RDKit          3D

 23 23  0  0  0  0  0  0  0  0999 V2000
   12.8547   20.3712   59.1769 C   0  0  2  0  0  0  0  0  0  0  0  0
   11.8070   19.6925   58.3374 C   0  0  0  0  0  0  0  0  0  0  0  0
   11.1926   18.5011   58.9933 C   0  0  0  0  0  0  0  0  0  0  0  0
   10.6219   17.6174   57.8901 C   0  0  0  0  0  0  0  0  0  0  0  0
   11.6377   16.6747   57.3257 C   0  0  0  0  0  0  0  0  0  0  0  0
   16.6767   22.1405   56.2786 C   0  0  0  0  0  0  0  0  0  0  0  0
   17.2004   22.8265   55.2140 C   0  0  0  0  0  0  0  0  0  0  0  0
   16.6342   22.7545   53.9672 C   0  0  0  0  0  0  0  0  0  0  0  0
   15.4988   21.9510   53.8276 C   0  0  0  0  0  0  0  0  0  0  0  0
   14.9812   21.2669   54.9017 C   0  0  0  0  0  0  0  0  0  0  0  0
   15.5466   21.3356   56.1581 C   0  0  0  0  0  0  0  0  0  0  0  0
   12.5245   20.6711   61.6341 C   0  0  0  0  0  0  0  0  0  0  0  0
   12.8858   21.4667   63.9509 C   0  0  0  0  0  0  0  0  0  0  0  0
   11.9368   21.3896   62.7947 C   0  0  0  0  0  0  0  0  0  0  0  0
   13.8403   22.5936   63.8030 C   0  0  0  0  0  0  0  0  0  0  0  0
   13.0139   22.3041   57.3231 O   0  0  0  0  0  0  0  0  0  0  0  0
   14.7791   22.5436   59.1938 O   0  0  0  0  0  0  0  0  0  0  0  0
   15.0134   20.6391   57.2352 O   0  0  0  0  0  0  0  0  0  0  0  0
   13.2337   19.6545   61.8353 O   0  0  0  0  0  0  0  0  0  0  0  0
   15.0140   22.5765   64.2591 O   0  0  0  0  0  0  0  0  0  0  0  0
   13.3547   23.7172   63.1064 O   0  0  0  0  0  0  0  0  0  0  0  0
   12.3150   21.0910   60.2921 N   0  0  0  0  0  0  0  0  0  0  0  0
   13.9089   21.4713   58.2342 P   0  0  1  0  0  5  0  0  0  0  0  0
  1 23  1  0
  1 22  1  0
  1  2  1  6
  2  3  1  0
  3  4  1  0
  4  5  1  0
 22 12  1  0
 12 19  2  0
 12 14  1  0
 14 13  1  0
 13 15  1  0
 15 20  2  0
 15 21  1  0
 23 16  2  0
 23 17  1  1
 23 18  1  0
 18 11  1  0
 11 10  1  0
 11  6  2  0
  6  7  1  0
  7  8  2  0
  8  9  1  0
  9 10  2  0
M  END
$$$$
