1a0q_ligand
     RDKit          3D

 23 23  0  0  0  0  0  0  0  0999 V2000
   13.1786   20.4079   59.2571 C   0  0  2  0  0  0  0  0  0  0  0  0
   12.3437   19.5091   58.3865 C   0  0  0  0  0  0  0  0  0  0  0  0
   11.4749   18.5692   59.1540 C   0  0  0  0  0  0  0  0  0  0  0  0
   10.8808   17.5809   58.1571 C   0  0  0  0  0  0  0  0  0  0  0  0
   11.8833   17.1038   57.1539 C   0  0  0  0  0  0  0  0  0  0  0  0
   16.8102   22.1338   55.8508 C   0  0  0  0  0  0  0  0  0  0  0  0
   17.0294   22.5614   54.5672 C   0  0  0  0  0  0  0  0  0  0  0  0
   16.1250   22.3156   53.5663 C   0  0  0  0  0  0  0  0  0  0  0  0
   14.9685   21.6096   53.9105 C   0  0  0  0  0  0  0  0  0  0  0  0
   14.7581   21.1850   55.2009 C   0  0  0  0  0  0  0  0  0  0  0  0
   15.6644   21.4294   56.2118 C   0  0  0  0  0  0  0  0  0  0  0  0
   12.6135   20.7652   61.6634 C   0  0  0  0  0  0  0  0  0  0  0  0
   12.3743   21.1584   64.0964 C   0  0  0  0  0  0  0  0  0  0  0  0
   11.8030   21.4027   62.7335 C   0  0  0  0  0  0  0  0  0  0  0  0
   13.4649   22.1137   64.4134 C   0  0  0  0  0  0  0  0  0  0  0  0
   13.1502   22.2112   57.2710 O   0  0  0  0  0  0  0  0  0  0  0  0
   14.6167   22.9287   59.2728 O   0  0  0  0  0  0  0  0  0  0  0  0
   15.4393   20.9947   57.5118 O   0  0  0  0  0  0  0  0  0  0  0  0
   13.4975   19.9300   61.9766 O   0  0  0  0  0  0  0  0  0  0  0  0
   13.6297   23.2073   63.8111 O   0  0  0  0  0  0  0  0  0  0  0  0
   14.3331   21.7258   65.4523 O   0  0  0  0  0  0  0  0  0  0  0  0
   12.4279   21.0644   60.2861 N   0  0  0  0  0  0  0  0  0  0  0  0
   14.0884   21.6411   58.3290 P   0  0  1  0  0  5  0  0  0  0  0  0
  1 23  1  0
  1 22  1  0
  1  2  1  6
  2  3  1  0
  3  4  1  0
  4  5  1  0
 22 12  1  0
 12 19  2  0
 12 14  1  0
 14 13  1  0
 13 15  1  0
 15 20  2  0
 15 21  1  0
 23 16  2  0
 23 17  1  1
 23 18  1  0
 18 11  1  0
 11 10  1  0
 11  6  2  0
  6  7  1  0
  7  8  2  0
  8  9  1  0
  9 10  2  0
M  END
$$$$
