1a0q_ligand
     RDKit          3D

 23 23  0  0  0  0  0  0  0  0999 V2000
   13.0221   20.5022   59.2410 C   0  0  2  0  0  0  0  0  0  0  0  0
   12.1162   19.6927   58.3538 C   0  0  0  0  0  0  0  0  0  0  0  0
   11.3998   18.5963   59.0692 C   0  0  0  0  0  0  0  0  0  0  0  0
   10.7246   17.7285   58.0135 C   0  0  0  0  0  0  0  0  0  0  0  0
   11.6753   16.7770   57.3578 C   0  0  0  0  0  0  0  0  0  0  0  0
   16.8817   21.9535   55.9666 C   0  0  0  0  0  0  0  0  0  0  0  0
   17.1495   22.1385   54.6353 C   0  0  0  0  0  0  0  0  0  0  0  0
   16.2894   21.6956   53.6635 C   0  0  0  0  0  0  0  0  0  0  0  0
   15.1264   21.0465   54.0885 C   0  0  0  0  0  0  0  0  0  0  0  0
   14.8671   20.8659   55.4263 C   0  0  0  0  0  0  0  0  0  0  0  0
   15.7287   21.3093   56.4081 C   0  0  0  0  0  0  0  0  0  0  0  0
   12.6005   20.8277   61.6809 C   0  0  0  0  0  0  0  0  0  0  0  0
   12.1590   20.8362   64.1174 C   0  0  0  0  0  0  0  0  0  0  0  0
   11.9320   21.5280   62.8083 C   0  0  0  0  0  0  0  0  0  0  0  0
   13.3749   21.3423   64.8017 C   0  0  0  0  0  0  0  0  0  0  0  0
   13.1505   22.1626   57.1377 O   0  0  0  0  0  0  0  0  0  0  0  0
   14.2986   23.1086   59.2495 O   0  0  0  0  0  0  0  0  0  0  0  0
   15.4545   21.1202   57.7567 O   0  0  0  0  0  0  0  0  0  0  0  0
   13.4309   19.9185   61.9276 O   0  0  0  0  0  0  0  0  0  0  0  0
   13.9050   20.7722   65.7915 O   0  0  0  0  0  0  0  0  0  0  0  0
   13.9236   22.5271   64.2740 O   0  0  0  0  0  0  0  0  0  0  0  0
   12.3363   21.1473   60.3211 N   0  0  0  0  0  0  0  0  0  0  0  0
   13.9733   21.7284   58.3456 P   0  0  1  0  0  5  0  0  0  0  0  0
  1 23  1  0
  1 22  1  0
  1  2  1  6
  2  3  1  0
  3  4  1  0
  4  5  1  0
 22 12  1  0
 12 19  2  0
 12 14  1  0
 14 13  1  0
 13 15  1  0
 15 20  2  0
 15 21  1  0
 23 16  2  0
 23 17  1  1
 23 18  1  0
 18 11  1  0
 11 10  1  0
 11  6  2  0
  6  7  1  0
  7  8  2  0
  8  9  1  0
  9 10  2  0
M  END
$$$$
