1a0q_ligand
     RDKit          3D

 23 23  0  0  0  0  0  0  0  0999 V2000
   13.3700   20.4741   59.2250 C   0  0  2  0  0  0  0  0  0  0  0  0
   12.6482   19.4637   58.3759 C   0  0  0  0  0  0  0  0  0  0  0  0
   11.6965   18.6069   59.1423 C   0  0  0  0  0  0  0  0  0  0  0  0
   11.2365   17.4912   58.2111 C   0  0  0  0  0  0  0  0  0  0  0  0
   11.6843   17.7004   56.7987 C   0  0  0  0  0  0  0  0  0  0  0  0
   14.9598   20.9605   55.3101 C   0  0  0  0  0  0  0  0  0  0  0  0
   15.1520   21.1319   53.9640 C   0  0  0  0  0  0  0  0  0  0  0  0
   16.2505   21.7915   53.4757 C   0  0  0  0  0  0  0  0  0  0  0  0
   17.1673   22.2825   54.4099 C   0  0  0  0  0  0  0  0  0  0  0  0
   16.9653   22.1054   55.7581 C   0  0  0  0  0  0  0  0  0  0  0  0
   15.8621   21.4426   56.2549 C   0  0  0  0  0  0  0  0  0  0  0  0
   12.7680   20.9169   61.6080 C   0  0  0  0  0  0  0  0  0  0  0  0
   11.1786   20.7749   63.5014 C   0  0  0  0  0  0  0  0  0  0  0  0
   12.0122   21.6732   62.6401 C   0  0  0  0  0  0  0  0  0  0  0  0
   11.9921   20.1110   64.5503 C   0  0  0  0  0  0  0  0  0  0  0  0
   13.2578   22.0934   57.0890 O   0  0  0  0  0  0  0  0  0  0  0  0
   14.4100   23.1819   59.1288 O   0  0  0  0  0  0  0  0  0  0  0  0
   15.6701   21.2706   57.6199 O   0  0  0  0  0  0  0  0  0  0  0  0
   13.6460   20.0945   61.9683 O   0  0  0  0  0  0  0  0  0  0  0  0
   13.0255   20.6217   65.0575 O   0  0  0  0  0  0  0  0  0  0  0  0
   11.5384   18.8433   64.9633 O   0  0  0  0  0  0  0  0  0  0  0  0
   12.5362   21.0875   60.2158 N   0  0  0  0  0  0  0  0  0  0  0  0
   14.1684   21.7593   58.2653 P   0  0  1  0  0  5  0  0  0  0  0  0
  1 23  1  0
  1 22  1  0
  1  2  1  6
  2  3  1  0
  3  4  1  0
  4  5  1  0
 22 12  1  0
 12 19  2  0
 12 14  1  0
 14 13  1  0
 13 15  1  0
 15 20  2  0
 15 21  1  0
 23 16  2  0
 23 17  1  1
 23 18  1  0
 18 11  1  0
 11 10  1  0
 11  6  2  0
  6  7  1  0
  7  8  2  0
  8  9  1  0
  9 10  2  0
M  END
$$$$
