1a0q_ligand
     RDKit          3D

 23 23  0  0  0  0  0  0  0  0999 V2000
   13.1338   20.6008   59.1852 C   0  0  2  0  0  0  0  0  0  0  0  0
   12.1831   19.8176   58.3216 C   0  0  0  0  0  0  0  0  0  0  0  0
   11.4969   18.7051   59.0417 C   0  0  0  0  0  0  0  0  0  0  0  0
   10.7419   17.8860   58.0011 C   0  0  0  0  0  0  0  0  0  0  0  0
   11.6139   16.8791   57.3193 C   0  0  0  0  0  0  0  0  0  0  0  0
   15.0217   21.0140   55.2200 C   0  0  0  0  0  0  0  0  0  0  0  0
   15.3048   21.3255   53.9157 C   0  0  0  0  0  0  0  0  0  0  0  0
   16.3774   22.1127   53.5841 C   0  0  0  0  0  0  0  0  0  0  0  0
   17.1711   22.5848   54.6336 C   0  0  0  0  0  0  0  0  0  0  0  0
   16.8786   22.2667   55.9386 C   0  0  0  0  0  0  0  0  0  0  0  0
   15.8009   21.4753   56.2781 C   0  0  0  0  0  0  0  0  0  0  0  0
   12.7731   20.9036   61.6378 C   0  0  0  0  0  0  0  0  0  0  0  0
   11.0055   21.0121   63.3684 C   0  0  0  0  0  0  0  0  0  0  0  0
   12.2226   21.6652   62.7890 C   0  0  0  0  0  0  0  0  0  0  0  0
   11.3617   19.9957   64.3895 C   0  0  0  0  0  0  0  0  0  0  0  0
   13.2253   22.2944   57.1065 O   0  0  0  0  0  0  0  0  0  0  0  0
   14.5012   23.1607   59.1789 O   0  0  0  0  0  0  0  0  0  0  0  0
   15.5166   21.1614   57.6010 O   0  0  0  0  0  0  0  0  0  0  0  0
   13.5114   19.9110   61.8537 O   0  0  0  0  0  0  0  0  0  0  0  0
   12.4908   19.9314   64.9436 O   0  0  0  0  0  0  0  0  0  0  0  0
   10.3447   19.0788   64.7187 O   0  0  0  0  0  0  0  0  0  0  0  0
   12.4959   21.2556   60.2886 N   0  0  0  0  0  0  0  0  0  0  0  0
   14.0862   21.8096   58.2677 P   0  0  1  0  0  5  0  0  0  0  0  0
  1 23  1  0
  1 22  1  0
  1  2  1  6
  2  3  1  0
  3  4  1  0
  4  5  1  0
 22 12  1  0
 12 19  2  0
 12 14  1  0
 14 13  1  0
 13 15  1  0
 15 20  2  0
 15 21  1  0
 23 16  2  0
 23 17  1  1
 23 18  1  0
 18 11  1  0
 11 10  1  0
 11  6  2  0
  6  7  1  0
  7  8  2  0
  8  9  1  0
  9 10  2  0
M  END
$$$$
