1a0q_ligand
     RDKit          3D

 23 23  0  0  0  0  0  0  0  0999 V2000
   12.9899   20.4212   59.3269 C   0  0  2  0  0  0  0  0  0  0  0  0
   12.0348   19.5900   58.5146 C   0  0  0  0  0  0  0  0  0  0  0  0
   11.2356   18.6279   59.3288 C   0  0  0  0  0  0  0  0  0  0  0  0
   10.7290   17.5434   58.3850 C   0  0  0  0  0  0  0  0  0  0  0  0
   11.7598   17.1251   57.3842 C   0  0  0  0  0  0  0  0  0  0  0  0
   16.7363   22.0109   56.0442 C   0  0  0  0  0  0  0  0  0  0  0  0
   17.0667   22.4566   54.7910 C   0  0  0  0  0  0  0  0  0  0  0  0
   16.3001   22.1494   53.6964 C   0  0  0  0  0  0  0  0  0  0  0  0
   15.1657   21.3616   53.9128 C   0  0  0  0  0  0  0  0  0  0  0  0
   14.8429   20.9195   55.1737 C   0  0  0  0  0  0  0  0  0  0  0  0
   15.6104   21.2254   56.2784 C   0  0  0  0  0  0  0  0  0  0  0  0
   12.6150   20.9138   61.7464 C   0  0  0  0  0  0  0  0  0  0  0  0
   12.0879   21.0420   64.1624 C   0  0  0  0  0  0  0  0  0  0  0  0
   12.0185   21.7315   62.8345 C   0  0  0  0  0  0  0  0  0  0  0  0
   13.3870   21.2831   64.8384 C   0  0  0  0  0  0  0  0  0  0  0  0
   13.0619   22.1135   57.2464 O   0  0  0  0  0  0  0  0  0  0  0  0
   14.5812   22.8452   59.2033 O   0  0  0  0  0  0  0  0  0  0  0  0
   15.2728   20.7721   57.5474 O   0  0  0  0  0  0  0  0  0  0  0  0
   13.3805   19.9629   62.0409 O   0  0  0  0  0  0  0  0  0  0  0  0
   13.8589   20.5287   65.7295 O   0  0  0  0  0  0  0  0  0  0  0  0
   14.0876   22.4317   64.4222 O   0  0  0  0  0  0  0  0  0  0  0  0
   12.3526   21.1659   60.3721 N   0  0  0  0  0  0  0  0  0  0  0  0
   13.9690   21.5440   58.3315 P   0  0  1  0  0  5  0  0  0  0  0  0
  1 23  1  0
  1 22  1  0
  1  2  1  6
  2  3  1  0
  3  4  1  0
  4  5  1  0
 22 12  1  0
 12 19  2  0
 12 14  1  0
 14 13  1  0
 13 15  1  0
 15 20  2  0
 15 21  1  0
 23 16  2  0
 23 17  1  1
 23 18  1  0
 18 11  1  0
 11 10  1  0
 11  6  2  0
  6  7  1  0
  7  8  2  0
  8  9  1  0
  9 10  2  0
M  END
$$$$
