1a0q_ligand
     RDKit          3D

 23 23  0  0  0  0  0  0  0  0999 V2000
   13.0869   20.5072   59.2140 C   0  0  2  0  0  0  0  0  0  0  0  0
   12.2224   19.7148   58.2719 C   0  0  0  0  0  0  0  0  0  0  0  0
   11.4548   18.6220   58.9382 C   0  0  0  0  0  0  0  0  0  0  0  0
   10.7691   17.8136   57.8428 C   0  0  0  0  0  0  0  0  0  0  0  0
   11.6643   16.7696   57.2532 C   0  0  0  0  0  0  0  0  0  0  0  0
   14.7851   21.0177   55.3775 C   0  0  0  0  0  0  0  0  0  0  0  0
   15.0023   21.2511   54.0445 C   0  0  0  0  0  0  0  0  0  0  0  0
   16.1605   21.8345   53.5991 C   0  0  0  0  0  0  0  0  0  0  0  0
   17.1117   22.1816   54.5630 C   0  0  0  0  0  0  0  0  0  0  0  0
   16.8843   21.9432   55.8976 C   0  0  0  0  0  0  0  0  0  0  0  0
   15.7210   21.3567   56.3513 C   0  0  0  0  0  0  0  0  0  0  0  0
   12.5983   20.8235   61.6426 C   0  0  0  0  0  0  0  0  0  0  0  0
   12.1023   20.8001   64.0685 C   0  0  0  0  0  0  0  0  0  0  0  0
   11.8393   21.4606   62.7501 C   0  0  0  0  0  0  0  0  0  0  0  0
   13.1713   21.4961   64.8271 C   0  0  0  0  0  0  0  0  0  0  0  0
   13.2395   22.3213   57.2435 O   0  0  0  0  0  0  0  0  0  0  0  0
   14.4956   23.0389   59.3836 O   0  0  0  0  0  0  0  0  0  0  0  0
   15.5038   21.1214   57.7031 O   0  0  0  0  0  0  0  0  0  0  0  0
   13.4909   19.9827   61.9131 O   0  0  0  0  0  0  0  0  0  0  0  0
   13.5166   22.6875   64.6100 O   0  0  0  0  0  0  0  0  0  0  0  0
   13.8001   20.7359   65.8323 O   0  0  0  0  0  0  0  0  0  0  0  0
   12.3533   21.1293   60.2761 N   0  0  0  0  0  0  0  0  0  0  0  0
   14.0736   21.7526   58.3861 P   0  0  1  0  0  5  0  0  0  0  0  0
  1 23  1  0
  1 22  1  0
  1  2  1  6
  2  3  1  0
  3  4  1  0
  4  5  1  0
 22 12  1  0
 12 19  2  0
 12 14  1  0
 14 13  1  0
 13 15  1  0
 15 20  2  0
 15 21  1  0
 23 16  2  0
 23 17  1  1
 23 18  1  0
 18 11  1  0
 11 10  1  0
 11  6  2  0
  6  7  1  0
  7  8  2  0
  8  9  1  0
  9 10  2  0
M  END
$$$$
