1a0q_ligand
     RDKit          3D

 23 23  0  0  0  0  0  0  0  0999 V2000
   13.4227   20.4857   59.1580 C   0  0  2  0  0  0  0  0  0  0  0  0
   12.6850   19.5218   58.2694 C   0  0  0  0  0  0  0  0  0  0  0  0
   12.3006   18.2514   58.9517 C   0  0  0  0  0  0  0  0  0  0  0  0
   11.7742   17.3011   57.8823 C   0  0  0  0  0  0  0  0  0  0  0  0
   10.3951   17.6584   57.4246 C   0  0  0  0  0  0  0  0  0  0  0  0
   14.8810   21.0598   55.3088 C   0  0  0  0  0  0  0  0  0  0  0  0
   15.0239   21.1913   53.9521 C   0  0  0  0  0  0  0  0  0  0  0  0
   16.1301   21.7872   53.4030 C   0  0  0  0  0  0  0  0  0  0  0  0
   17.1072   22.2554   54.2864 C   0  0  0  0  0  0  0  0  0  0  0  0
   16.9544   22.1185   55.6457 C   0  0  0  0  0  0  0  0  0  0  0  0
   15.8437   21.5200   56.2036 C   0  0  0  0  0  0  0  0  0  0  0  0
   13.0000   20.9983   61.5654 C   0  0  0  0  0  0  0  0  0  0  0  0
   12.1289   20.7854   63.8735 C   0  0  0  0  0  0  0  0  0  0  0  0
   12.1998   21.6364   62.6428 C   0  0  0  0  0  0  0  0  0  0  0  0
   11.3887   19.5232   63.6256 C   0  0  0  0  0  0  0  0  0  0  0  0
   13.2751   22.2006   57.1002 O   0  0  0  0  0  0  0  0  0  0  0  0
   14.4245   23.2094   59.1821 O   0  0  0  0  0  0  0  0  0  0  0  0
   15.7018   21.3881   57.5791 O   0  0  0  0  0  0  0  0  0  0  0  0
   14.0623   20.3978   61.8620 O   0  0  0  0  0  0  0  0  0  0  0  0
   10.4575   19.4156   62.7847 O   0  0  0  0  0  0  0  0  0  0  0  0
   11.7905   18.4178   64.4004 O   0  0  0  0  0  0  0  0  0  0  0  0
   12.6091   21.0399   60.1992 N   0  0  0  0  0  0  0  0  0  0  0  0
   14.1974   21.8251   58.2548 P   0  0  1  0  0  5  0  0  0  0  0  0
  1 23  1  0
  1 22  1  0
  1  2  1  6
  2  3  1  0
  3  4  1  0
  4  5  1  0
 22 12  1  0
 12 19  2  0
 12 14  1  0
 14 13  1  0
 13 15  1  0
 15 20  2  0
 15 21  1  0
 23 16  2  0
 23 17  1  1
 23 18  1  0
 18 11  1  0
 11 10  1  0
 11  6  2  0
  6  7  1  0
  7  8  2  0
  8  9  1  0
  9 10  2  0
M  END
$$$$
