1a0q_ligand
     RDKit          3D

 23 23  0  0  0  0  0  0  0  0999 V2000
   13.0256   20.5097   59.1500 C   0  0  2  0  0  0  0  0  0  0  0  0
   12.1817   19.7660   58.1511 C   0  0  0  0  0  0  0  0  0  0  0  0
   11.3440   18.6899   58.7572 C   0  0  0  0  0  0  0  0  0  0  0  0
   10.7396   17.8841   57.6131 C   0  0  0  0  0  0  0  0  0  0  0  0
   11.6625   16.8192   57.1099 C   0  0  0  0  0  0  0  0  0  0  0  0
   14.6989   21.5164   55.5213 C   0  0  0  0  0  0  0  0  0  0  0  0
   14.9395   21.7264   54.1885 C   0  0  0  0  0  0  0  0  0  0  0  0
   16.1744   22.1146   53.7362 C   0  0  0  0  0  0  0  0  0  0  0  0
   17.1789   22.2874   54.6930 C   0  0  0  0  0  0  0  0  0  0  0  0
   16.9274   22.0741   56.0275 C   0  0  0  0  0  0  0  0  0  0  0  0
   15.6871   21.6835   56.4881 C   0  0  0  0  0  0  0  0  0  0  0  0
   12.4990   20.4278   61.5899 C   0  0  0  0  0  0  0  0  0  0  0  0
   12.5743   20.9608   64.0068 C   0  0  0  0  0  0  0  0  0  0  0  0
   11.7258   20.8815   62.7750 C   0  0  0  0  0  0  0  0  0  0  0  0
   12.9482   22.3611   64.3263 C   0  0  0  0  0  0  0  0  0  0  0  0
   13.0880   22.4049   57.2522 O   0  0  0  0  0  0  0  0  0  0  0  0
   14.0948   23.1850   59.4995 O   0  0  0  0  0  0  0  0  0  0  0  0
   15.4463   21.4714   57.8397 O   0  0  0  0  0  0  0  0  0  0  0  0
   13.3716   19.5357   61.7298 O   0  0  0  0  0  0  0  0  0  0  0  0
   13.8985   22.6706   65.0925 O   0  0  0  0  0  0  0  0  0  0  0  0
   12.1646   23.3572   63.7122 O   0  0  0  0  0  0  0  0  0  0  0  0
   12.2899   20.9672   60.2913 N   0  0  0  0  0  0  0  0  0  0  0  0
   13.9052   21.8972   58.4350 P   0  0  1  0  0  5  0  0  0  0  0  0
  1 23  1  0
  1 22  1  0
  1  2  1  6
  2  3  1  0
  3  4  1  0
  4  5  1  0
 22 12  1  0
 12 19  2  0
 12 14  1  0
 14 13  1  0
 13 15  1  0
 15 20  2  0
 15 21  1  0
 23 16  2  0
 23 17  1  1
 23 18  1  0
 18 11  1  0
 11 10  1  0
 11  6  2  0
  6  7  1  0
  7  8  2  0
  8  9  1  0
  9 10  2  0
M  END
$$$$
