1a0q_ligand
     RDKit          3D

 23 23  0  0  0  0  0  0  0  0999 V2000
   13.0383   20.3745   59.1846 C   0  0  2  0  0  0  0  0  0  0  0  0
   12.1854   19.5631   58.2481 C   0  0  0  0  0  0  0  0  0  0  0  0
   11.3301   18.5537   58.9385 C   0  0  0  0  0  0  0  0  0  0  0  0
   10.6995   17.6779   57.8620 C   0  0  0  0  0  0  0  0  0  0  0  0
   11.7196   16.9870   57.0129 C   0  0  0  0  0  0  0  0  0  0  0  0
   14.7082   21.2415   55.4127 C   0  0  0  0  0  0  0  0  0  0  0  0
   14.9488   21.4898   54.0865 C   0  0  0  0  0  0  0  0  0  0  0  0
   16.1504   21.9930   53.6586 C   0  0  0  0  0  0  0  0  0  0  0  0
   17.1210   22.2425   54.6333 C   0  0  0  0  0  0  0  0  0  0  0  0
   16.8698   21.9901   55.9610 C   0  0  0  0  0  0  0  0  0  0  0  0
   15.6630   21.4839   56.3971 C   0  0  0  0  0  0  0  0  0  0  0  0
   12.5586   20.4820   61.6331 C   0  0  0  0  0  0  0  0  0  0  0  0
   12.5851   21.0065   64.0530 C   0  0  0  0  0  0  0  0  0  0  0  0
   11.7802   20.9964   62.7898 C   0  0  0  0  0  0  0  0  0  0  0  0
   13.2872   22.2998   64.2457 C   0  0  0  0  0  0  0  0  0  0  0  0
   13.0556   22.1660   57.1877 O   0  0  0  0  0  0  0  0  0  0  0  0
   14.1500   23.0500   59.3542 O   0  0  0  0  0  0  0  0  0  0  0  0
   15.4222   21.2333   57.7420 O   0  0  0  0  0  0  0  0  0  0  0  0
   13.4684   19.6392   61.8303 O   0  0  0  0  0  0  0  0  0  0  0  0
   14.3218   22.4321   64.9514 O   0  0  0  0  0  0  0  0  0  0  0  0
   12.7229   23.4056   63.5807 O   0  0  0  0  0  0  0  0  0  0  0  0
   12.3136   20.9086   60.2994 N   0  0  0  0  0  0  0  0  0  0  0  0
   13.9081   21.7104   58.3668 P   0  0  1  0  0  5  0  0  0  0  0  0
  1 23  1  0
  1 22  1  0
  1  2  1  6
  2  3  1  0
  3  4  1  0
  4  5  1  0
 22 12  1  0
 12 19  2  0
 12 14  1  0
 14 13  1  0
 13 15  1  0
 15 20  2  0
 15 21  1  0
 23 16  2  0
 23 17  1  1
 23 18  1  0
 18 11  1  0
 11 10  1  0
 11  6  2  0
  6  7  1  0
  7  8  2  0
  8  9  1  0
  9 10  2  0
M  END
$$$$
