1a0q_ligand
     RDKit          3D

 23 23  0  0  0  0  0  0  0  0999 V2000
   13.0253   20.4793   59.2469 C   0  0  2  0  0  0  0  0  0  0  0  0
   12.1653   19.6586   58.3251 C   0  0  0  0  0  0  0  0  0  0  0  0
   11.4102   18.5733   59.0175 C   0  0  0  0  0  0  0  0  0  0  0  0
   10.7678   17.7067   57.9406 C   0  0  0  0  0  0  0  0  0  0  0  0
   11.7008   16.6643   57.4095 C   0  0  0  0  0  0  0  0  0  0  0  0
   16.7836   22.0929   55.9377 C   0  0  0  0  0  0  0  0  0  0  0  0
   17.0124   22.3700   54.6151 C   0  0  0  0  0  0  0  0  0  0  0  0
   16.1298   21.9839   53.6394 C   0  0  0  0  0  0  0  0  0  0  0  0
   14.9852   21.2948   54.0509 C   0  0  0  0  0  0  0  0  0  0  0  0
   14.7649   21.0217   55.3801 C   0  0  0  0  0  0  0  0  0  0  0  0
   15.6494   21.4077   56.3658 C   0  0  0  0  0  0  0  0  0  0  0  0
   12.5345   20.7864   61.6762 C   0  0  0  0  0  0  0  0  0  0  0  0
   12.1490   20.8745   64.1206 C   0  0  0  0  0  0  0  0  0  0  0  0
   11.8445   21.4892   62.7890 C   0  0  0  0  0  0  0  0  0  0  0  0
   13.3430   21.4921   64.7497 C   0  0  0  0  0  0  0  0  0  0  0  0
   13.1198   22.2670   57.2486 O   0  0  0  0  0  0  0  0  0  0  0  0
   14.3776   23.0444   59.3668 O   0  0  0  0  0  0  0  0  0  0  0  0
   15.4146   21.1253   57.7055 O   0  0  0  0  0  0  0  0  0  0  0  0
   13.3636   19.8811   61.9409 O   0  0  0  0  0  0  0  0  0  0  0  0
   13.8769   22.5549   64.3359 O   0  0  0  0  0  0  0  0  0  0  0  0
   13.8656   20.8110   65.8661 O   0  0  0  0  0  0  0  0  0  0  0  0
   12.2925   21.0993   60.3107 N   0  0  0  0  0  0  0  0  0  0  0  0
   13.9763   21.7343   58.3920 P   0  0  1  0  0  5  0  0  0  0  0  0
  1 23  1  0
  1 22  1  0
  1  2  1  6
  2  3  1  0
  3  4  1  0
  4  5  1  0
 22 12  1  0
 12 19  2  0
 12 14  1  0
 14 13  1  0
 13 15  1  0
 15 20  2  0
 15 21  1  0
 23 16  2  0
 23 17  1  1
 23 18  1  0
 18 11  1  0
 11 10  1  0
 11  6  2  0
  6  7  1  0
  7  8  2  0
  8  9  1  0
  9 10  2  0
M  END
$$$$
