1a0q_ligand
     RDKit          3D

 23 23  0  0  0  0  0  0  0  0999 V2000
   13.2244   20.5797   59.3505 C   0  0  2  0  0  0  0  0  0  0  0  0
   12.2037   19.7959   58.5716 C   0  0  0  0  0  0  0  0  0  0  0  0
   11.6367   18.6376   59.3225 C   0  0  0  0  0  0  0  0  0  0  0  0
   10.9163   17.7497   58.3144 C   0  0  0  0  0  0  0  0  0  0  0  0
   11.8488   16.8348   57.5848 C   0  0  0  0  0  0  0  0  0  0  0  0
   14.7483   21.0053   55.2347 C   0  0  0  0  0  0  0  0  0  0  0  0
   14.9429   21.3149   53.9138 C   0  0  0  0  0  0  0  0  0  0  0  0
   16.0674   21.9761   53.4914 C   0  0  0  0  0  0  0  0  0  0  0  0
   17.0082   22.3216   54.4660 C   0  0  0  0  0  0  0  0  0  0  0  0
   16.8037   22.0065   55.7883 C   0  0  0  0  0  0  0  0  0  0  0  0
   15.6744   21.3414   56.2189 C   0  0  0  0  0  0  0  0  0  0  0  0
   13.0736   20.9974   61.8081 C   0  0  0  0  0  0  0  0  0  0  0  0
   11.3106   21.4587   63.4844 C   0  0  0  0  0  0  0  0  0  0  0  0
   12.6598   21.8419   62.9587 C   0  0  0  0  0  0  0  0  0  0  0  0
   11.3109   20.0854   64.0471 C   0  0  0  0  0  0  0  0  0  0  0  0
   13.2028   22.2534   57.2539 O   0  0  0  0  0  0  0  0  0  0  0  0
   14.6900   23.0801   59.1976 O   0  0  0  0  0  0  0  0  0  0  0  0
   15.4801   21.0290   57.5584 O   0  0  0  0  0  0  0  0  0  0  0  0
   13.8041   19.9964   62.0114 O   0  0  0  0  0  0  0  0  0  0  0  0
   10.5737   19.1578   63.6204 O   0  0  0  0  0  0  0  0  0  0  0  0
   12.2029   19.8632   65.1141 O   0  0  0  0  0  0  0  0  0  0  0  0
   12.6729   21.2784   60.4734 N   0  0  0  0  0  0  0  0  0  0  0  0
   14.1416   21.7412   58.3406 P   0  0  1  0  0  5  0  0  0  0  0  0
  1 23  1  0
  1 22  1  0
  1  2  1  6
  2  3  1  0
  3  4  1  0
  4  5  1  0
 22 12  1  0
 12 19  2  0
 12 14  1  0
 14 13  1  0
 13 15  1  0
 15 20  2  0
 15 21  1  0
 23 16  2  0
 23 17  1  1
 23 18  1  0
 18 11  1  0
 11 10  1  0
 11  6  2  0
  6  7  1  0
  7  8  2  0
  8  9  1  0
  9 10  2  0
M  END
$$$$
