1a0q_ligand
     RDKit          3D

 23 23  0  0  0  0  0  0  0  0999 V2000
   13.1707   20.6213   59.2555 C   0  0  2  0  0  0  0  0  0  0  0  0
   12.2396   19.7952   58.4108 C   0  0  0  0  0  0  0  0  0  0  0  0
   11.5345   18.7214   59.1705 C   0  0  0  0  0  0  0  0  0  0  0  0
   10.8748   17.8001   58.1510 C   0  0  0  0  0  0  0  0  0  0  0  0
   11.8519   16.8760   57.4948 C   0  0  0  0  0  0  0  0  0  0  0  0
   14.8452   20.9299   55.3668 C   0  0  0  0  0  0  0  0  0  0  0  0
   15.0433   21.0828   54.0193 C   0  0  0  0  0  0  0  0  0  0  0  0
   16.1222   21.7717   53.5277 C   0  0  0  0  0  0  0  0  0  0  0  0
   17.0127   22.3122   54.4601 C   0  0  0  0  0  0  0  0  0  0  0  0
   16.8051   22.1532   55.8096 C   0  0  0  0  0  0  0  0  0  0  0  0
   15.7215   21.4612   56.3097 C   0  0  0  0  0  0  0  0  0  0  0  0
   12.9658   21.0422   61.7086 C   0  0  0  0  0  0  0  0  0  0  0  0
   11.1974   21.2937   63.4236 C   0  0  0  0  0  0  0  0  0  0  0  0
   12.4608   21.8542   62.8463 C   0  0  0  0  0  0  0  0  0  0  0  0
   11.4674   20.1416   64.3194 C   0  0  0  0  0  0  0  0  0  0  0  0
   13.1659   22.2753   57.1433 O   0  0  0  0  0  0  0  0  0  0  0  0
   14.3646   23.2661   59.2059 O   0  0  0  0  0  0  0  0  0  0  0  0
   15.5235   21.3079   57.6761 O   0  0  0  0  0  0  0  0  0  0  0  0
   13.8122   20.1401   61.9250 O   0  0  0  0  0  0  0  0  0  0  0  0
   12.5067   20.0348   65.0224 O   0  0  0  0  0  0  0  0  0  0  0  0
   10.4745   19.1432   64.3456 O   0  0  0  0  0  0  0  0  0  0  0  0
   12.5261   21.2463   60.3722 N   0  0  0  0  0  0  0  0  0  0  0  0
   14.0479   21.8724   58.3199 P   0  0  1  0  0  5  0  0  0  0  0  0
  1 23  1  0
  1 22  1  0
  1  2  1  6
  2  3  1  0
  3  4  1  0
  4  5  1  0
 22 12  1  0
 12 19  2  0
 12 14  1  0
 14 13  1  0
 13 15  1  0
 15 20  2  0
 15 21  1  0
 23 16  2  0
 23 17  1  1
 23 18  1  0
 18 11  1  0
 11 10  1  0
 11  6  2  0
  6  7  1  0
  7  8  2  0
  8  9  1  0
  9 10  2  0
M  END
$$$$
