1a0q_ligand
     RDKit          3D

 23 23  0  0  0  0  0  0  0  0999 V2000
   13.2693   20.5820   59.2184 C   0  0  2  0  0  0  0  0  0  0  0  0
   12.4720   19.6781   58.3182 C   0  0  0  0  0  0  0  0  0  0  0  0
   11.5384   18.7737   59.0514 C   0  0  0  0  0  0  0  0  0  0  0  0
   10.9567   17.7981   58.0349 C   0  0  0  0  0  0  0  0  0  0  0  0
   12.0138   17.1012   57.2372 C   0  0  0  0  0  0  0  0  0  0  0  0
   16.9424   22.0718   55.7608 C   0  0  0  0  0  0  0  0  0  0  0  0
   17.1161   22.2188   54.4093 C   0  0  0  0  0  0  0  0  0  0  0  0
   16.1709   21.7871   53.5146 C   0  0  0  0  0  0  0  0  0  0  0  0
   15.0212   21.1899   54.0396 C   0  0  0  0  0  0  0  0  0  0  0  0
   14.8564   21.0471   55.3969 C   0  0  0  0  0  0  0  0  0  0  0  0
   15.8039   21.4795   56.3015 C   0  0  0  0  0  0  0  0  0  0  0  0
   12.7093   20.9018   61.6310 C   0  0  0  0  0  0  0  0  0  0  0  0
   11.4824   20.6976   63.7722 C   0  0  0  0  0  0  0  0  0  0  0  0
   12.0028   21.6269   62.7189 C   0  0  0  0  0  0  0  0  0  0  0  0
   12.4759   20.4829   64.8537 C   0  0  0  0  0  0  0  0  0  0  0  0
   13.2662   22.3080   57.1645 O   0  0  0  0  0  0  0  0  0  0  0  0
   14.4560   23.2301   59.2638 O   0  0  0  0  0  0  0  0  0  0  0  0
   15.6249   21.3290   57.6708 O   0  0  0  0  0  0  0  0  0  0  0  0
   13.5334   20.0015   61.9264 O   0  0  0  0  0  0  0  0  0  0  0  0
   13.4108   21.2867   65.1102 O   0  0  0  0  0  0  0  0  0  0  0  0
   12.3174   19.3003   65.6019 O   0  0  0  0  0  0  0  0  0  0  0  0
   12.4887   21.1878   60.2561 N   0  0  0  0  0  0  0  0  0  0  0  0
   14.1458   21.8670   58.3291 P   0  0  1  0  0  5  0  0  0  0  0  0
  1 23  1  0
  1 22  1  0
  1  2  1  6
  2  3  1  0
  3  4  1  0
  4  5  1  0
 22 12  1  0
 12 19  2  0
 12 14  1  0
 14 13  1  0
 13 15  1  0
 15 20  2  0
 15 21  1  0
 23 16  2  0
 23 17  1  1
 23 18  1  0
 18 11  1  0
 11 10  1  0
 11  6  2  0
  6  7  1  0
  7  8  2  0
  8  9  1  0
  9 10  2  0
M  END
$$$$
