1a0q_ligand
     RDKit          3D

 23 23  0  0  0  0  0  0  0  0999 V2000
   13.2705   20.4739   59.3007 C   0  0  2  0  0  0  0  0  0  0  0  0
   12.5228   19.4878   58.4454 C   0  0  0  0  0  0  0  0  0  0  0  0
   11.3681   18.8464   59.1400 C   0  0  0  0  0  0  0  0  0  0  0  0
   11.0082   17.5881   58.3586 C   0  0  0  0  0  0  0  0  0  0  0  0
   11.6576   17.5429   57.0113 C   0  0  0  0  0  0  0  0  0  0  0  0
   16.8175   22.0427   55.7191 C   0  0  0  0  0  0  0  0  0  0  0  0
   16.9638   22.3226   54.3854 C   0  0  0  0  0  0  0  0  0  0  0  0
   15.9879   22.0054   53.4760 C   0  0  0  0  0  0  0  0  0  0  0  0
   14.8359   21.3838   53.9669 C   0  0  0  0  0  0  0  0  0  0  0  0
   14.6989   21.1074   55.3065 C   0  0  0  0  0  0  0  0  0  0  0  0
   15.6774   21.4242   56.2259 C   0  0  0  0  0  0  0  0  0  0  0  0
   12.6491   20.9277   61.6766 C   0  0  0  0  0  0  0  0  0  0  0  0
   11.8009   20.8759   64.0023 C   0  0  0  0  0  0  0  0  0  0  0  0
   11.8238   21.6182   62.7016 C   0  0  0  0  0  0  0  0  0  0  0  0
   12.8694   21.3439   64.9200 C   0  0  0  0  0  0  0  0  0  0  0  0
   13.1734   22.2062   57.2544 O   0  0  0  0  0  0  0  0  0  0  0  0
   14.5543   23.0764   59.2566 O   0  0  0  0  0  0  0  0  0  0  0  0
   15.5262   21.1392   57.5770 O   0  0  0  0  0  0  0  0  0  0  0  0
   13.5599   20.1457   62.0453 O   0  0  0  0  0  0  0  0  0  0  0  0
   13.2538   20.6959   65.9290 O   0  0  0  0  0  0  0  0  0  0  0  0
   13.4501   22.5858   64.5975 O   0  0  0  0  0  0  0  0  0  0  0  0
   12.4484   21.1175   60.2821 N   0  0  0  0  0  0  0  0  0  0  0  0
   14.1230   21.7290   58.3476 P   0  0  1  0  0  5  0  0  0  0  0  0
  1 23  1  0
  1 22  1  0
  1  2  1  6
  2  3  1  0
  3  4  1  0
  4  5  1  0
 22 12  1  0
 12 19  2  0
 12 14  1  0
 14 13  1  0
 13 15  1  0
 15 20  2  0
 15 21  1  0
 23 16  2  0
 23 17  1  1
 23 18  1  0
 18 11  1  0
 11 10  1  0
 11  6  2  0
  6  7  1  0
  7  8  2  0
  8  9  1  0
  9 10  2  0
M  END
$$$$
