
     RDKit          3D

 10 10  0  0  0  0  0  0  0  0999 V2000
   11.6085   16.5439   56.6222 C   0  0  0  0  0  0  0  0  0  0  0  0
   11.3493   17.0048   57.9328 O   0  0  0  0  0  0  0  0  0  0  0  0
   11.8815   18.2324   58.3104 C   0  0  0  0  0  0  0  0  0  0  0  0
   12.6983   18.9508   57.4619 C   0  0  0  0  0  0  0  0  0  0  0  0
   13.2348   20.1721   57.8226 C   0  0  0  0  0  0  0  0  0  0  0  0
   11.6256   18.7985   59.5452 C   0  0  0  0  0  0  0  0  0  0  0  0
   12.1616   20.0188   59.9061 C   0  0  0  0  0  0  0  0  0  0  0  0
   12.9801   20.7393   59.0564 C   0  0  0  0  0  0  0  0  0  0  0  0
   13.5279   22.0073   59.4505 C   0  0  0  0  0  0  0  0  0  0  0  0
   13.9626   23.0273   59.7871 N   0  0  0  0  0  0  0  0  0  0  0  0
  1  2  1  0
  2  3  1  0
  3  4  2  0
  4  5  1  0
  3  6  1  0
  6  7  2  0
  7  8  1  0
  8  9  1  0
  9 10  3  0
  8  5  2  0
M  END
$$$$
