
     RDKit          3D

 10 10  0  0  0  0  0  0  0  0999 V2000
    9.4146   18.5925   61.1675 C   0  0  0  0  0  0  0  0  0  0  0  0
    9.7776   18.2125   59.8556 O   0  0  0  0  0  0  0  0  0  0  0  0
   10.7696   18.9458   59.2145 C   0  0  0  0  0  0  0  0  0  0  0  0
   11.1938   18.6190   57.9431 C   0  0  0  0  0  0  0  0  0  0  0  0
   12.1785   19.3381   57.2927 C   0  0  0  0  0  0  0  0  0  0  0  0
   11.3821   20.0339   59.8077 C   0  0  0  0  0  0  0  0  0  0  0  0
   12.3661   20.7526   59.1582 C   0  0  0  0  0  0  0  0  0  0  0  0
   12.7917   20.4257   57.8842 C   0  0  0  0  0  0  0  0  0  0  0  0
   13.8169   21.1861   57.2254 C   0  0  0  0  0  0  0  0  0  0  0  0
   14.6388   21.8156   56.7050 N   0  0  0  0  0  0  0  0  0  0  0  0
  1  2  1  0
  2  3  1  0
  3  4  2  0
  4  5  1  0
  3  6  1  0
  6  7  2  0
  7  8  1  0
  8  9  1  0
  9 10  3  0
  8  5  2  0
M  END
$$$$
