
     RDKit          3D

 10 10  0  0  0  0  0  0  0  0999 V2000
   11.3086   16.7262   56.5211 C   0  0  0  0  0  0  0  0  0  0  0  0
   11.1310   17.1232   57.8658 O   0  0  0  0  0  0  0  0  0  0  0  0
   11.6787   18.3367   58.2660 C   0  0  0  0  0  0  0  0  0  0  0  0
   12.4217   19.1089   57.3971 C   0  0  0  0  0  0  0  0  0  0  0  0
   12.9725   20.3171   57.7800 C   0  0  0  0  0  0  0  0  0  0  0  0
   11.5122   18.8348   59.5447 C   0  0  0  0  0  0  0  0  0  0  0  0
   12.0624   20.0420   59.9276 C   0  0  0  0  0  0  0  0  0  0  0  0
   12.8071   20.8164   59.0576 C   0  0  0  0  0  0  0  0  0  0  0  0
   13.3712   22.0696   59.4753 C   0  0  0  0  0  0  0  0  0  0  0  0
   13.8325   23.0718   59.8293 N   0  0  0  0  0  0  0  0  0  0  0  0
  1  2  1  0
  2  3  1  0
  3  4  2  0
  4  5  1  0
  3  6  1  0
  6  7  2  0
  7  8  1  0
  8  9  1  0
  9 10  3  0
  8  5  2  0
M  END
$$$$
