
     RDKit          3D

 10 10  0  0  0  0  0  0  0  0999 V2000
   11.2922   16.7238   56.9945 C   0  0  0  0  0  0  0  0  0  0  0  0
   11.0121   17.3338   58.2381 O   0  0  0  0  0  0  0  0  0  0  0  0
   11.6544   18.5298   58.5380 C   0  0  0  0  0  0  0  0  0  0  0  0
   12.4226   19.1858   57.5984 C   0  0  0  0  0  0  0  0  0  0  0  0
   13.0670   20.3751   57.8813 C   0  0  0  0  0  0  0  0  0  0  0  0
   11.5614   19.1248   59.7822 C   0  0  0  0  0  0  0  0  0  0  0  0
   12.2051   20.3132   60.0652 C   0  0  0  0  0  0  0  0  0  0  0  0
   12.9751   20.9712   59.1243 C   0  0  0  0  0  0  0  0  0  0  0  0
   13.6370   22.2067   59.4383 C   0  0  0  0  0  0  0  0  0  0  0  0
   14.1682   23.2095   59.6726 N   0  0  0  0  0  0  0  0  0  0  0  0
  1  2  1  0
  2  3  1  0
  3  4  2  0
  4  5  1  0
  3  6  1  0
  6  7  2  0
  7  8  1  0
  8  9  1  0
  9 10  3  0
  8  5  2  0
M  END
$$$$
