
     RDKit          3D

 10 10  0  0  0  0  0  0  0  0999 V2000
   11.2502   16.6211   56.6957 C   0  0  0  0  0  0  0  0  0  0  0  0
   10.9621   17.2045   57.9502 O   0  0  0  0  0  0  0  0  0  0  0  0
   11.5806   18.4084   58.2678 C   0  0  0  0  0  0  0  0  0  0  0  0
   11.4466   18.9749   59.5185 C   0  0  0  0  0  0  0  0  0  0  0  0
   12.0550   20.1708   59.8492 C   0  0  0  0  0  0  0  0  0  0  0  0
   12.3578   19.1005   57.3579 C   0  0  0  0  0  0  0  0  0  0  0  0
   12.9660   20.2954   57.6880 C   0  0  0  0  0  0  0  0  0  0  0  0
   12.8321   20.8638   58.9410 C   0  0  0  0  0  0  0  0  0  0  0  0
   13.4729   22.1079   59.2649 C   0  0  0  0  0  0  0  0  0  0  0  0
   14.0005   23.1101   59.5091 N   0  0  0  0  0  0  0  0  0  0  0  0
  1  2  1  0
  2  3  1  0
  3  4  2  0
  4  5  1  0
  3  6  1  0
  6  7  2  0
  7  8  1  0
  8  9  1  0
  9 10  3  0
  8  5  2  0
M  END
$$$$
