
     RDKit          3D

 10 10  0  0  0  0  0  0  0  0999 V2000
   11.2073   16.7083   56.2988 C   0  0  0  0  0  0  0  0  0  0  0  0
   11.0751   17.0891   57.6533 O   0  0  0  0  0  0  0  0  0  0  0  0
   11.6377   18.2970   58.0498 C   0  0  0  0  0  0  0  0  0  0  0  0
   12.3333   19.0897   57.1604 C   0  0  0  0  0  0  0  0  0  0  0  0
   12.8981   20.2927   57.5393 C   0  0  0  0  0  0  0  0  0  0  0  0
   11.5337   18.7689   59.3449 C   0  0  0  0  0  0  0  0  0  0  0  0
   12.0980   19.9708   59.7239 C   0  0  0  0  0  0  0  0  0  0  0  0
   12.7952   20.7658   58.8333 C   0  0  0  0  0  0  0  0  0  0  0  0
   13.3749   22.0131   59.2472 C   0  0  0  0  0  0  0  0  0  0  0  0
   13.8290   23.0292   59.5697 N   0  0  0  0  0  0  0  0  0  0  0  0
  1  2  1  0
  2  3  1  0
  3  4  2  0
  4  5  1  0
  3  6  1  0
  6  7  2  0
  7  8  1  0
  8  9  1  0
  9 10  3  0
  8  5  2  0
M  END
$$$$
