
     RDKit          3D

 10 10  0  0  0  0  0  0  0  0999 V2000
   11.3272   16.6987   55.3766 C   0  0  0  0  0  0  0  0  0  0  0  0
   10.9206   17.0834   56.6742 O   0  0  0  0  0  0  0  0  0  0  0  0
   11.4789   18.2342   57.2189 C   0  0  0  0  0  0  0  0  0  0  0  0
   12.4346   18.9590   56.5372 C   0  0  0  0  0  0  0  0  0  0  0  0
   12.9988   20.1046   57.0653 C   0  0  0  0  0  0  0  0  0  0  0  0
   11.1126   18.7140   58.4625 C   0  0  0  0  0  0  0  0  0  0  0  0
   11.6762   19.8587   58.9905 C   0  0  0  0  0  0  0  0  0  0  0  0
   12.6339   20.5855   58.3080 C   0  0  0  0  0  0  0  0  0  0  0  0
   13.2082   21.7740   58.8745 C   0  0  0  0  0  0  0  0  0  0  0  0
   13.6793   22.7216   59.3465 N   0  0  0  0  0  0  0  0  0  0  0  0
  1  2  1  0
  2  3  1  0
  3  4  2  0
  4  5  1  0
  3  6  1  0
  6  7  2  0
  7  8  1  0
  8  9  1  0
  9 10  3  0
  8  5  2  0
M  END
$$$$
