
     RDKit          3D

 10 10  0  0  0  0  0  0  0  0999 V2000
   11.2660   16.5684   57.8819 C   0  0  0  0  0  0  0  0  0  0  0  0
   11.7815   17.6629   57.1516 O   0  0  0  0  0  0  0  0  0  0  0  0
   12.2283   18.7704   57.8635 C   0  0  0  0  0  0  0  0  0  0  0  0
   12.7232   19.8850   57.2185 C   0  0  0  0  0  0  0  0  0  0  0  0
   13.1709   20.9932   57.9120 C   0  0  0  0  0  0  0  0  0  0  0  0
   12.2029   18.8183   59.2447 C   0  0  0  0  0  0  0  0  0  0  0  0
   12.6502   19.9255   59.9381 C   0  0  0  0  0  0  0  0  0  0  0  0
   13.1462   21.0428   59.2925 C   0  0  0  0  0  0  0  0  0  0  0  0
   13.6068   22.1848   60.0319 C   0  0  0  0  0  0  0  0  0  0  0  0
   13.9764   23.1174   60.6118 N   0  0  0  0  0  0  0  0  0  0  0  0
  1  2  1  0
  2  3  1  0
  3  4  2  0
  4  5  1  0
  3  6  1  0
  6  7  2  0
  7  8  1  0
  8  9  1  0
  9 10  3  0
  8  5  2  0
M  END
$$$$
