
     RDKit          3D

 10 10  0  0  0  0  0  0  0  0999 V2000
   11.2812   16.8616   56.9764 C   0  0  0  0  0  0  0  0  0  0  0  0
   11.0499   17.3664   58.2759 O   0  0  0  0  0  0  0  0  0  0  0  0
   11.6462   18.5734   58.6232 C   0  0  0  0  0  0  0  0  0  0  0  0
   12.3260   19.3309   57.6919 C   0  0  0  0  0  0  0  0  0  0  0  0
   12.9239   20.5324   58.0216 C   0  0  0  0  0  0  0  0  0  0  0  0
   11.5931   19.0791   59.9086 C   0  0  0  0  0  0  0  0  0  0  0  0
   12.1904   20.2796   60.2384 C   0  0  0  0  0  0  0  0  0  0  0  0
   12.8717   21.0393   59.3058 C   0  0  0  0  0  0  0  0  0  0  0  0
   13.4864   22.2857   59.6688 C   0  0  0  0  0  0  0  0  0  0  0  0
   13.9982   23.2864   59.9502 N   0  0  0  0  0  0  0  0  0  0  0  0
  1  2  1  0
  2  3  1  0
  3  4  2  0
  4  5  1  0
  3  6  1  0
  6  7  2  0
  7  8  1  0
  8  9  1  0
  9 10  3  0
  8  5  2  0
M  END
$$$$
