
     RDKit          3D

 10 10  0  0  0  0  0  0  0  0999 V2000
   11.2605   16.8729   56.9575 C   0  0  0  0  0  0  0  0  0  0  0  0
   11.1135   17.3266   58.2878 O   0  0  0  0  0  0  0  0  0  0  0  0
   11.6870   18.5463   58.6288 C   0  0  0  0  0  0  0  0  0  0  0  0
   12.3802   19.2964   57.7014 C   0  0  0  0  0  0  0  0  0  0  0  0
   12.9557   20.5103   58.0250 C   0  0  0  0  0  0  0  0  0  0  0  0
   11.5967   19.0727   59.9037 C   0  0  0  0  0  0  0  0  0  0  0  0
   12.1717   20.2857   60.2274 C   0  0  0  0  0  0  0  0  0  0  0  0
   12.8665   21.0379   59.2987 C   0  0  0  0  0  0  0  0  0  0  0  0
   13.4575   22.2976   59.6553 C   0  0  0  0  0  0  0  0  0  0  0  0
   13.9348   23.3079   59.9622 N   0  0  0  0  0  0  0  0  0  0  0  0
  1  2  1  0
  2  3  1  0
  3  4  2  0
  4  5  1  0
  3  6  1  0
  6  7  2  0
  7  8  1  0
  8  9  1  0
  9 10  3  0
  8  5  2  0
M  END
$$$$
