
     RDKit          3D

 10 10  0  0  0  0  0  0  0  0999 V2000
   11.0303   16.6756   57.4311 C   0  0  0  0  0  0  0  0  0  0  0  0
   11.7446   17.7609   56.8751 O   0  0  0  0  0  0  0  0  0  0  0  0
   12.0735   18.8225   57.7104 C   0  0  0  0  0  0  0  0  0  0  0  0
   12.7309   19.9358   57.2293 C   0  0  0  0  0  0  0  0  0  0  0  0
   13.0645   20.9988   58.0468 C   0  0  0  0  0  0  0  0  0  0  0  0
   11.7638   18.8239   59.0576 C   0  0  0  0  0  0  0  0  0  0  0  0
   12.0970   19.8859   59.8748 C   0  0  0  0  0  0  0  0  0  0  0  0
   12.7558   21.0019   59.3935 C   0  0  0  0  0  0  0  0  0  0  0  0
   13.0937   22.0965   60.2600 C   0  0  0  0  0  0  0  0  0  0  0  0
   13.3777   22.9671   60.9701 N   0  0  0  0  0  0  0  0  0  0  0  0
  1  2  1  0
  2  3  1  0
  3  4  2  0
  4  5  1  0
  3  6  1  0
  6  7  2  0
  7  8  1  0
  8  9  1  0
  9 10  3  0
  8  5  2  0
M  END
$$$$
