
     RDKit          3D

 10 10  0  0  0  0  0  0  0  0999 V2000
   11.2327   16.9643   57.7377 C   0  0  0  0  0  0  0  0  0  0  0  0
   11.9736   18.0626   57.2459 O   0  0  0  0  0  0  0  0  0  0  0  0
   12.2245   19.1211   58.1117 C   0  0  0  0  0  0  0  0  0  0  0  0
   12.9347   20.2301   57.7008 C   0  0  0  0  0  0  0  0  0  0  0  0
   13.1921   21.2899   58.5495 C   0  0  0  0  0  0  0  0  0  0  0  0
   11.7813   19.1234   59.4211 C   0  0  0  0  0  0  0  0  0  0  0  0
   12.0383   20.1822   60.2694 C   0  0  0  0  0  0  0  0  0  0  0  0
   12.7499   21.2939   59.8584 C   0  0  0  0  0  0  0  0  0  0  0  0
   13.0069   22.3853   60.7563 C   0  0  0  0  0  0  0  0  0  0  0  0
   13.1949   23.2714   61.4789 N   0  0  0  0  0  0  0  0  0  0  0  0
  1  2  1  0
  2  3  1  0
  3  4  2  0
  4  5  1  0
  3  6  1  0
  6  7  2  0
  7  8  1  0
  8  9  1  0
  9 10  3  0
  8  5  2  0
M  END
$$$$
