
     RDKit          3D

 10 10  0  0  0  0  0  0  0  0999 V2000
   11.8096   16.7647   56.9671 C   0  0  0  0  0  0  0  0  0  0  0  0
   11.2158   17.4198   58.0696 O   0  0  0  0  0  0  0  0  0  0  0  0
   11.7763   18.6184   58.4961 C   0  0  0  0  0  0  0  0  0  0  0  0
   12.6279   19.3399   57.6852 C   0  0  0  0  0  0  0  0  0  0  0  0
   13.1928   20.5327   58.0949 C   0  0  0  0  0  0  0  0  0  0  0  0
   11.5155   19.1512   59.7447 C   0  0  0  0  0  0  0  0  0  0  0  0
   12.0799   20.3431   60.1544 C   0  0  0  0  0  0  0  0  0  0  0  0
   12.9333   21.0667   59.3424 C   0  0  0  0  0  0  0  0  0  0  0  0
   13.5102   22.3046   59.7871 C   0  0  0  0  0  0  0  0  0  0  0  0
   13.9922   23.2933   60.1516 N   0  0  0  0  0  0  0  0  0  0  0  0
  1  2  1  0
  2  3  1  0
  3  4  2  0
  4  5  1  0
  3  6  1  0
  6  7  2  0
  7  8  1  0
  8  9  1  0
  9 10  3  0
  8  5  2  0
M  END
$$$$
