
     RDKit          3D

 10 10  0  0  0  0  0  0  0  0999 V2000
   11.0725   16.9773   57.7233 C   0  0  0  0  0  0  0  0  0  0  0  0
   11.7054   18.0490   57.0539 O   0  0  0  0  0  0  0  0  0  0  0  0
   12.1421   19.1274   57.8149 C   0  0  0  0  0  0  0  0  0  0  0  0
   12.7211   20.2324   57.2260 C   0  0  0  0  0  0  0  0  0  0  0  0
   13.1601   21.3118   57.9688 C   0  0  0  0  0  0  0  0  0  0  0  0
   12.0226   19.1545   59.1918 C   0  0  0  0  0  0  0  0  0  0  0  0
   12.4611   20.2329   59.9344 C   0  0  0  0  0  0  0  0  0  0  0  0
   13.0415   21.3406   59.3450 C   0  0  0  0  0  0  0  0  0  0  0  0
   13.4913   22.4526   60.1351 C   0  0  0  0  0  0  0  0  0  0  0  0
   13.8691   23.3382   60.7798 N   0  0  0  0  0  0  0  0  0  0  0  0
  1  2  1  0
  2  3  1  0
  3  4  2  0
  4  5  1  0
  3  6  1  0
  6  7  2  0
  7  8  1  0
  8  9  1  0
  9 10  3  0
  8  5  2  0
M  END
$$$$
