
     RDKit          3D

 10 10  0  0  0  0  0  0  0  0999 V2000
   11.4935   16.5106   57.8511 C   0  0  0  0  0  0  0  0  0  0  0  0
   12.0477   17.6582   57.2402 O   0  0  0  0  0  0  0  0  0  0  0  0
   12.3523   18.7463   58.0504 C   0  0  0  0  0  0  0  0  0  0  0  0
   12.8175   19.9299   57.5156 C   0  0  0  0  0  0  0  0  0  0  0  0
   13.1245   21.0199   58.3076 C   0  0  0  0  0  0  0  0  0  0  0  0
   12.2082   18.7055   59.4246 C   0  0  0  0  0  0  0  0  0  0  0  0
   12.5149   19.7945   60.2163 C   0  0  0  0  0  0  0  0  0  0  0  0
   12.9811   20.9809   59.6812 C   0  0  0  0  0  0  0  0  0  0  0  0
   13.2946   22.1026   60.5219 C   0  0  0  0  0  0  0  0  0  0  0  0
   13.5389   23.0197   61.1866 N   0  0  0  0  0  0  0  0  0  0  0  0
  1  2  1  0
  2  3  1  0
  3  4  2  0
  4  5  1  0
  3  6  1  0
  6  7  2  0
  7  8  1  0
  8  9  1  0
  9 10  3  0
  8  5  2  0
M  END
$$$$
