
     RDKit          3D

 10 10  0  0  0  0  0  0  0  0999 V2000
   18.6454   22.2262   34.1641 C   0  0  0  0  0  0  0  0  0  0  0  0
   18.7740   23.6041   34.4505 O   0  0  0  0  0  0  0  0  0  0  0  0
   18.2322   24.0769   35.6404 C   0  0  0  0  0  0  0  0  0  0  0  0
   17.8416   23.2134   36.6429 C   0  0  0  0  0  0  0  0  0  0  0  0
   17.3016   23.6679   37.8309 C   0  0  0  0  0  0  0  0  0  0  0  0
   18.0554   25.4258   35.8853 C   0  0  0  0  0  0  0  0  0  0  0  0
   17.5159   25.8804   37.0723 C   0  0  0  0  0  0  0  0  0  0  0  0
   17.1242   25.0158   38.0774 C   0  0  0  0  0  0  0  0  0  0  0  0
   16.5649   25.5085   39.3053 C   0  0  0  0  0  0  0  0  0  0  0  0
   16.1315   25.9145   40.3002 N   0  0  0  0  0  0  0  0  0  0  0  0
  1  2  1  0
  2  3  1  0
  3  4  2  0
  4  5  1  0
  3  6  1  0
  6  7  2  0
  7  8  1  0
  8  9  1  0
  9 10  3  0
  8  5  2  0
M  END
$$$$
