
     RDKit          3D

 10 10  0  0  0  0  0  0  0  0999 V2000
   11.5520   16.5314   57.6878 C   0  0  0  0  0  0  0  0  0  0  0  0
   12.0162   17.7313   57.1031 O   0  0  0  0  0  0  0  0  0  0  0  0
   12.3024   18.7998   57.9453 C   0  0  0  0  0  0  0  0  0  0  0  0
   12.1360   18.7003   59.3111 C   0  0  0  0  0  0  0  0  0  0  0  0
   12.4161   19.7533   60.1611 C   0  0  0  0  0  0  0  0  0  0  0  0
   12.7656   20.0115   57.4676 C   0  0  0  0  0  0  0  0  0  0  0  0
   13.0456   21.0639   58.3166 C   0  0  0  0  0  0  0  0  0  0  0  0
   12.8790   20.9650   59.6854 C   0  0  0  0  0  0  0  0  0  0  0  0
   13.1759   22.0715   60.5519 C   0  0  0  0  0  0  0  0  0  0  0  0
   13.4018   22.9571   61.2641 N   0  0  0  0  0  0  0  0  0  0  0  0
  1  2  1  0
  2  3  1  0
  3  4  2  0
  4  5  1  0
  3  6  1  0
  6  7  2  0
  7  8  1  0
  8  9  1  0
  9 10  3  0
  8  5  2  0
M  END
$$$$
