
     RDKit          3D

 10 10  0  0  0  0  0  0  0  0999 V2000
   11.6062   16.5665   56.9664 C   0  0  0  0  0  0  0  0  0  0  0  0
   11.0989   17.2774   58.0775 O   0  0  0  0  0  0  0  0  0  0  0  0
   11.7266   18.4654   58.4344 C   0  0  0  0  0  0  0  0  0  0  0  0
   11.2802   19.2199   59.4997 C   0  0  0  0  0  0  0  0  0  0  0  0
   11.8934   20.4027   59.8665 C   0  0  0  0  0  0  0  0  0  0  0  0
   12.8231   18.9546   57.7494 C   0  0  0  0  0  0  0  0  0  0  0  0
   13.4361   20.1364   58.1157 C   0  0  0  0  0  0  0  0  0  0  0  0
   12.9894   20.8930   59.1830 C   0  0  0  0  0  0  0  0  0  0  0  0
   13.6409   22.1200   59.5483 C   0  0  0  0  0  0  0  0  0  0  0  0
   14.1791   23.0993   59.8547 N   0  0  0  0  0  0  0  0  0  0  0  0
  1  2  1  0
  2  3  1  0
  3  4  2  0
  4  5  1  0
  3  6  1  0
  6  7  2  0
  7  8  1  0
  8  9  1  0
  9 10  3  0
  8  5  2  0
M  END
$$$$
