
     RDKit          3D

 10 10  0  0  0  0  0  0  0  0999 V2000
   11.3905   17.0692   57.9740 C   0  0  0  0  0  0  0  0  0  0  0  0
   11.9784   18.1965   57.3571 O   0  0  0  0  0  0  0  0  0  0  0  0
   12.3192   19.2777   58.1619 C   0  0  0  0  0  0  0  0  0  0  0  0
   12.0788   19.2636   59.5203 C   0  0  0  0  0  0  0  0  0  0  0  0
   12.4117   20.3303   60.3334 C   0  0  0  0  0  0  0  0  0  0  0  0
   12.9126   20.4177   57.6529 C   0  0  0  0  0  0  0  0  0  0  0  0
   13.2454   21.4837   58.4650 C   0  0  0  0  0  0  0  0  0  0  0  0
   13.0048   21.4704   59.8263 C   0  0  0  0  0  0  0  0  0  0  0  0
   13.3585   22.5897   60.6543 C   0  0  0  0  0  0  0  0  0  0  0  0
   13.6266   23.4901   61.3325 N   0  0  0  0  0  0  0  0  0  0  0  0
  1  2  1  0
  2  3  1  0
  3  4  2  0
  4  5  1  0
  3  6  1  0
  6  7  2  0
  7  8  1  0
  8  9  1  0
  9 10  3  0
  8  5  2  0
M  END
$$$$
