
     RDKit          3D

 10 10  0  0  0  0  0  0  0  0999 V2000
   10.9269   16.7407   56.7403 C   0  0  0  0  0  0  0  0  0  0  0  0
   10.8993   17.2262   58.0672 O   0  0  0  0  0  0  0  0  0  0  0  0
   11.5297   18.4366   58.3327 C   0  0  0  0  0  0  0  0  0  0  0  0
   12.1800   19.1390   57.3392 C   0  0  0  0  0  0  0  0  0  0  0  0
   12.8110   20.3431   57.5874 C   0  0  0  0  0  0  0  0  0  0  0  0
   11.5412   19.0007   59.5947 C   0  0  0  0  0  0  0  0  0  0  0  0
   12.1716   20.2038   59.8430 C   0  0  0  0  0  0  0  0  0  0  0  0
   12.8235   20.9082   58.8481 C   0  0  0  0  0  0  0  0  0  0  0  0
   13.4736   22.1584   59.1267 C   0  0  0  0  0  0  0  0  0  0  0  0
   13.9811   23.1767   59.3459 N   0  0  0  0  0  0  0  0  0  0  0  0
  1  2  1  0
  2  3  1  0
  3  4  2  0
  4  5  1  0
  3  6  1  0
  6  7  2  0
  7  8  1  0
  8  9  1  0
  9 10  3  0
  8  5  2  0
M  END
$$$$
