
     RDKit          3D

 10 10  0  0  0  0  0  0  0  0999 V2000
   11.1573   16.7610   56.7625 C   0  0  0  0  0  0  0  0  0  0  0  0
   11.1222   17.2105   58.1019 O   0  0  0  0  0  0  0  0  0  0  0  0
   11.7324   18.4237   58.3996 C   0  0  0  0  0  0  0  0  0  0  0  0
   11.7827   18.9024   59.6925 C   0  0  0  0  0  0  0  0  0  0  0  0
   12.3856   20.1061   60.0042 C   0  0  0  0  0  0  0  0  0  0  0  0
   12.3181   19.2126   57.4272 C   0  0  0  0  0  0  0  0  0  0  0  0
   12.9206   20.4155   57.7383 C   0  0  0  0  0  0  0  0  0  0  0  0
   12.9715   20.8958   59.0336 C   0  0  0  0  0  0  0  0  0  0  0  0
   13.6030   22.1498   59.3368 C   0  0  0  0  0  0  0  0  0  0  0  0
   14.0953   23.1677   59.5901 N   0  0  0  0  0  0  0  0  0  0  0  0
  1  2  1  0
  2  3  1  0
  3  4  2  0
  4  5  1  0
  3  6  1  0
  6  7  2  0
  7  8  1  0
  8  9  1  0
  9 10  3  0
  8  5  2  0
M  END
$$$$
