
     RDKit          3D

 10 10  0  0  0  0  0  0  0  0999 V2000
   11.3184   16.5239   56.7238 C   0  0  0  0  0  0  0  0  0  0  0  0
   10.8862   17.2163   57.8774 O   0  0  0  0  0  0  0  0  0  0  0  0
   11.5398   18.3964   58.2138 C   0  0  0  0  0  0  0  0  0  0  0  0
   12.5789   18.8834   57.4481 C   0  0  0  0  0  0  0  0  0  0  0  0
   13.2382   20.0545   57.7694 C   0  0  0  0  0  0  0  0  0  0  0  0
   11.1898   19.1424   59.3237 C   0  0  0  0  0  0  0  0  0  0  0  0
   11.8484   20.3127   59.6451 C   0  0  0  0  0  0  0  0  0  0  0  0
   12.8898   20.8014   58.8783 C   0  0  0  0  0  0  0  0  0  0  0  0
   13.5624   22.0211   59.2295 C   0  0  0  0  0  0  0  0  0  0  0  0
   14.0941   23.0147   59.4988 N   0  0  0  0  0  0  0  0  0  0  0  0
  1  2  1  0
  2  3  1  0
  3  4  2  0
  4  5  1  0
  3  6  1  0
  6  7  2  0
  7  8  1  0
  8  9  1  0
  9 10  3  0
  8  5  2  0
M  END
$$$$
