
     RDKit          3D

 10 10  0  0  0  0  0  0  0  0999 V2000
   11.4372   17.1460   57.9687 C   0  0  0  0  0  0  0  0  0  0  0  0
   12.0047   18.2876   57.3589 O   0  0  0  0  0  0  0  0  0  0  0  0
   12.3475   19.3607   58.1737 C   0  0  0  0  0  0  0  0  0  0  0  0
   12.1605   19.3116   59.5397 C   0  0  0  0  0  0  0  0  0  0  0  0
   12.4962   20.3697   60.3626 C   0  0  0  0  0  0  0  0  0  0  0  0
   12.8900   20.5270   57.6675 C   0  0  0  0  0  0  0  0  0  0  0  0
   13.2255   21.5845   58.4895 C   0  0  0  0  0  0  0  0  0  0  0  0
   13.0385   21.5361   59.8584 C   0  0  0  0  0  0  0  0  0  0  0  0
   13.3941   22.6471   60.6966 C   0  0  0  0  0  0  0  0  0  0  0  0
   13.6829   23.5306   61.3884 N   0  0  0  0  0  0  0  0  0  0  0  0
  1  2  1  0
  2  3  1  0
  3  4  2  0
  4  5  1  0
  3  6  1  0
  6  7  2  0
  7  8  1  0
  8  9  1  0
  9 10  3  0
  8  5  2  0
M  END
$$$$
