
     RDKit          3D

 10 10  0  0  0  0  0  0  0  0999 V2000
   10.8625   16.6265   56.6407 C   0  0  0  0  0  0  0  0  0  0  0  0
   10.7788   17.1959   57.9315 O   0  0  0  0  0  0  0  0  0  0  0  0
   11.4505   18.3910   58.1627 C   0  0  0  0  0  0  0  0  0  0  0  0
   12.2035   18.9924   57.1754 C   0  0  0  0  0  0  0  0  0  0  0  0
   12.8767   20.1800   57.3899 C   0  0  0  0  0  0  0  0  0  0  0  0
   11.4033   19.0392   59.3827 C   0  0  0  0  0  0  0  0  0  0  0  0
   12.0758   20.2259   59.5973 C   0  0  0  0  0  0  0  0  0  0  0  0
   12.8306   20.8292   58.6085 C   0  0  0  0  0  0  0  0  0  0  0  0
   13.5229   22.0640   58.8516 C   0  0  0  0  0  0  0  0  0  0  0  0
   14.0691   23.0638   59.0632 N   0  0  0  0  0  0  0  0  0  0  0  0
  1  2  1  0
  2  3  1  0
  3  4  2  0
  4  5  1  0
  3  6  1  0
  6  7  2  0
  7  8  1  0
  8  9  1  0
  9 10  3  0
  8  5  2  0
M  END
$$$$
