
     RDKit          3D

 10 10  0  0  0  0  0  0  0  0999 V2000
   11.7246   16.1755   57.0900 C   0  0  0  0  0  0  0  0  0  0  0  0
   11.1825   16.9751   58.1215 O   0  0  0  0  0  0  0  0  0  0  0  0
   11.7832   18.2019   58.3806 C   0  0  0  0  0  0  0  0  0  0  0  0
   12.8279   18.6656   57.6081 C   0  0  0  0  0  0  0  0  0  0  0  0
   13.4351   19.8826   57.8531 C   0  0  0  0  0  0  0  0  0  0  0  0
   11.3726   19.0196   59.4167 C   0  0  0  0  0  0  0  0  0  0  0  0
   11.9791   20.2357   59.6618 C   0  0  0  0  0  0  0  0  0  0  0  0
   13.0260   20.7011   58.8882 C   0  0  0  0  0  0  0  0  0  0  0  0
   13.6437   21.9692   59.1594 C   0  0  0  0  0  0  0  0  0  0  0  0
   14.1488   22.9849   59.3958 N   0  0  0  0  0  0  0  0  0  0  0  0
  1  2  1  0
  2  3  1  0
  3  4  2  0
  4  5  1  0
  3  6  1  0
  6  7  2  0
  7  8  1  0
  8  9  1  0
  9 10  3  0
  8  5  2  0
M  END
$$$$
