
     RDKit          3D

 10 10  0  0  0  0  0  0  0  0999 V2000
    9.4185   17.5604   58.6828 C   0  0  0  0  0  0  0  0  0  0  0  0
   10.3863   17.9696   57.7378 O   0  0  0  0  0  0  0  0  0  0  0  0
   11.2338   19.0163   58.0827 C   0  0  0  0  0  0  0  0  0  0  0  0
   12.0942   19.5754   57.1605 C   0  0  0  0  0  0  0  0  0  0  0  0
   12.9424   20.6161   57.4880 C   0  0  0  0  0  0  0  0  0  0  0  0
   11.2631   19.5521   59.3567 C   0  0  0  0  0  0  0  0  0  0  0  0
   12.1105   20.5919   59.6843 C   0  0  0  0  0  0  0  0  0  0  0  0
   12.9729   21.1527   58.7608 C   0  0  0  0  0  0  0  0  0  0  0  0
   13.8469   22.2341   59.1214 C   0  0  0  0  0  0  0  0  0  0  0  0
   14.5359   23.1169   59.4188 N   0  0  0  0  0  0  0  0  0  0  0  0
  1  2  1  0
  2  3  1  0
  3  4  2  0
  4  5  1  0
  3  6  1  0
  6  7  2  0
  7  8  1  0
  8  9  1  0
  9 10  3  0
  8  5  2  0
M  END
$$$$
