
     RDKit          3D

 10 10  0  0  0  0  0  0  0  0999 V2000
   11.4983   16.6060   57.8980 C   0  0  0  0  0  0  0  0  0  0  0  0
   11.8078   17.7669   57.1540 O   0  0  0  0  0  0  0  0  0  0  0  0
   12.3047   18.8691   57.8405 C   0  0  0  0  0  0  0  0  0  0  0  0
   12.5015   18.8341   59.2055 C   0  0  0  0  0  0  0  0  0  0  0  0
   12.9945   19.9212   59.9018 C   0  0  0  0  0  0  0  0  0  0  0  0
   12.6269   20.0518   57.2015 C   0  0  0  0  0  0  0  0  0  0  0  0
   13.1196   21.1383   57.8970 C   0  0  0  0  0  0  0  0  0  0  0  0
   13.3171   21.1040   59.2648 C   0  0  0  0  0  0  0  0  0  0  0  0
   13.8307   22.2451   59.9701 C   0  0  0  0  0  0  0  0  0  0  0  0
   14.2386   23.1574   60.5565 N   0  0  0  0  0  0  0  0  0  0  0  0
  1  2  1  0
  2  3  1  0
  3  4  2  0
  4  5  1  0
  3  6  1  0
  6  7  2  0
  7  8  1  0
  8  9  1  0
  9 10  3  0
  8  5  2  0
M  END
$$$$
