
     RDKit          3D

 10 10  0  0  0  0  0  0  0  0999 V2000
   11.4534   16.9658   57.0003 C   0  0  0  0  0  0  0  0  0  0  0  0
   11.1602   17.4600   58.2914 O   0  0  0  0  0  0  0  0  0  0  0  0
   11.7255   18.6723   58.6703 C   0  0  0  0  0  0  0  0  0  0  0  0
   12.4852   19.4149   57.7903 C   0  0  0  0  0  0  0  0  0  0  0  0
   13.0535   20.6215   58.1520 C   0  0  0  0  0  0  0  0  0  0  0  0
   11.5607   19.1984   59.9380 C   0  0  0  0  0  0  0  0  0  0  0  0
   12.1285   20.4040   60.2998 C   0  0  0  0  0  0  0  0  0  0  0  0
   12.8899   21.1487   59.4185 C   0  0  0  0  0  0  0  0  0  0  0  0
   13.4721   22.4008   59.8141 C   0  0  0  0  0  0  0  0  0  0  0  0
   13.9526   23.4012   60.1474 N   0  0  0  0  0  0  0  0  0  0  0  0
  1  2  1  0
  2  3  1  0
  3  4  2  0
  4  5  1  0
  3  6  1  0
  6  7  2  0
  7  8  1  0
  8  9  1  0
  9 10  3  0
  8  5  2  0
M  END
$$$$
