
     RDKit          3D

 10 10  0  0  0  0  0  0  0  0999 V2000
   10.7480   17.0228   57.8106 C   0  0  0  0  0  0  0  0  0  0  0  0
   11.5665   17.9454   57.1206 O   0  0  0  0  0  0  0  0  0  0  0  0
   12.0452   19.0458   57.8226 C   0  0  0  0  0  0  0  0  0  0  0  0
   11.8046   19.1944   59.1729 C   0  0  0  0  0  0  0  0  0  0  0  0
   12.2736   20.2823   59.8844 C   0  0  0  0  0  0  0  0  0  0  0  0
   12.7824   20.0446   57.2145 C   0  0  0  0  0  0  0  0  0  0  0  0
   13.2513   21.1317   57.9251 C   0  0  0  0  0  0  0  0  0  0  0  0
   13.0106   21.2814   59.2782 C   0  0  0  0  0  0  0  0  0  0  0  0
   13.5071   22.4199   59.9997 C   0  0  0  0  0  0  0  0  0  0  0  0
   13.9116   23.3474   60.5642 N   0  0  0  0  0  0  0  0  0  0  0  0
  1  2  1  0
  2  3  1  0
  3  4  2  0
  4  5  1  0
  3  6  1  0
  6  7  2  0
  7  8  1  0
  8  9  1  0
  9 10  3  0
  8  5  2  0
M  END
$$$$
