
     RDKit          3D

 10 10  0  0  0  0  0  0  0  0999 V2000
   11.1970   16.8054   57.0084 C   0  0  0  0  0  0  0  0  0  0  0  0
   11.1401   17.2585   58.3458 O   0  0  0  0  0  0  0  0  0  0  0  0
   11.7399   18.4756   58.6489 C   0  0  0  0  0  0  0  0  0  0  0  0
   11.8168   18.9328   59.9482 C   0  0  0  0  0  0  0  0  0  0  0  0
   12.4098   20.1401   60.2652 C   0  0  0  0  0  0  0  0  0  0  0  0
   12.2885   19.2897   57.6757 C   0  0  0  0  0  0  0  0  0  0  0  0
   12.8812   20.4961   57.9921 C   0  0  0  0  0  0  0  0  0  0  0  0
   12.9586   20.9549   59.2938 C   0  0  0  0  0  0  0  0  0  0  0  0
   13.5792   22.2130   59.6025 C   0  0  0  0  0  0  0  0  0  0  0  0
   14.0722   23.2356   59.8345 N   0  0  0  0  0  0  0  0  0  0  0  0
  1  2  1  0
  2  3  1  0
  3  4  2  0
  4  5  1  0
  3  6  1  0
  6  7  2  0
  7  8  1  0
  8  9  1  0
  9 10  3  0
  8  5  2  0
M  END
$$$$
