
     RDKit          3D

 10 10  0  0  0  0  0  0  0  0999 V2000
   11.0932   17.0531   57.7730 C   0  0  0  0  0  0  0  0  0  0  0  0
   11.8295   18.0919   57.1599 O   0  0  0  0  0  0  0  0  0  0  0  0
   12.2109   19.1735   57.9458 C   0  0  0  0  0  0  0  0  0  0  0  0
   12.8605   20.2616   57.4007 C   0  0  0  0  0  0  0  0  0  0  0  0
   13.2460   21.3439   58.1687 C   0  0  0  0  0  0  0  0  0  0  0  0
   11.9639   19.2206   59.3051 C   0  0  0  0  0  0  0  0  0  0  0  0
   12.3489   20.3019   60.0728 C   0  0  0  0  0  0  0  0  0  0  0  0
   12.9999   21.3927   59.5273 C   0  0  0  0  0  0  0  0  0  0  0  0
   13.3922   22.5080   60.3430 C   0  0  0  0  0  0  0  0  0  0  0  0
   13.7019   23.4203   60.9868 N   0  0  0  0  0  0  0  0  0  0  0  0
  1  2  1  0
  2  3  1  0
  3  4  2  0
  4  5  1  0
  3  6  1  0
  6  7  2  0
  7  8  1  0
  8  9  1  0
  9 10  3  0
  8  5  2  0
M  END
$$$$
