
     RDKit          3D

 10 10  0  0  0  0  0  0  0  0999 V2000
   11.6568   17.1554   57.2397 C   0  0  0  0  0  0  0  0  0  0  0  0
   11.3374   17.6455   58.5262 O   0  0  0  0  0  0  0  0  0  0  0  0
   11.8876   18.8610   58.9169 C   0  0  0  0  0  0  0  0  0  0  0  0
   11.7349   19.3365   60.2029 C   0  0  0  0  0  0  0  0  0  0  0  0
   12.2757   20.5425   60.6062 C   0  0  0  0  0  0  0  0  0  0  0  0
   12.6122   19.6556   58.0481 C   0  0  0  0  0  0  0  0  0  0  0  0
   13.1527   20.8607   58.4508 C   0  0  0  0  0  0  0  0  0  0  0  0
   13.0001   21.3378   59.7393 C   0  0  0  0  0  0  0  0  0  0  0  0
   13.5703   22.5943   60.1387 C   0  0  0  0  0  0  0  0  0  0  0  0
   14.0226   23.6163   60.4443 N   0  0  0  0  0  0  0  0  0  0  0  0
  1  2  1  0
  2  3  1  0
  3  4  2  0
  4  5  1  0
  3  6  1  0
  6  7  2  0
  7  8  1  0
  8  9  1  0
  9 10  3  0
  8  5  2  0
M  END
$$$$
