
     RDKit          3D

 10 10  0  0  0  0  0  0  0  0999 V2000
   11.2210   16.8458   56.9005 C   0  0  0  0  0  0  0  0  0  0  0  0
   10.9884   17.3462   58.2016 O   0  0  0  0  0  0  0  0  0  0  0  0
   11.5807   18.5542   58.5520 C   0  0  0  0  0  0  0  0  0  0  0  0
   12.3579   19.2580   57.6554 C   0  0  0  0  0  0  0  0  0  0  0  0
   12.9532   20.4597   57.9888 C   0  0  0  0  0  0  0  0  0  0  0  0
   11.4268   19.1143   59.8064 C   0  0  0  0  0  0  0  0  0  0  0  0
   12.0215   20.3151   60.1399 C   0  0  0  0  0  0  0  0  0  0  0  0
   12.8004   21.0209   59.2420 C   0  0  0  0  0  0  0  0  0  0  0  0
   13.4106   22.2686   59.6083 C   0  0  0  0  0  0  0  0  0  0  0  0
   13.8908   23.2847   59.8905 N   0  0  0  0  0  0  0  0  0  0  0  0
  1  2  1  0
  2  3  1  0
  3  4  2  0
  4  5  1  0
  3  6  1  0
  6  7  2  0
  7  8  1  0
  8  9  1  0
  9 10  3  0
  8  5  2  0
M  END
$$$$
