
     RDKit          3D

 10 10  0  0  0  0  0  0  0  0999 V2000
   11.3295   16.7341   57.7919 C   0  0  0  0  0  0  0  0  0  0  0  0
   11.8688   17.8640   57.1363 O   0  0  0  0  0  0  0  0  0  0  0  0
   12.2643   18.9445   57.9166 C   0  0  0  0  0  0  0  0  0  0  0  0
   12.1779   18.9043   59.2929 C   0  0  0  0  0  0  0  0  0  0  0  0
   12.5671   19.9700   60.0819 C   0  0  0  0  0  0  0  0  0  0  0  0
   12.7620   20.1098   57.3642 C   0  0  0  0  0  0  0  0  0  0  0  0
   13.1509   21.1749   58.1523 C   0  0  0  0  0  0  0  0  0  0  0  0
   13.0647   21.1354   59.5315 C   0  0  0  0  0  0  0  0  0  0  0  0
   13.4745   22.2541   60.3339 C   0  0  0  0  0  0  0  0  0  0  0  0
   13.8183   23.1616   60.9669 N   0  0  0  0  0  0  0  0  0  0  0  0
  1  2  1  0
  2  3  1  0
  3  4  2  0
  4  5  1  0
  3  6  1  0
  6  7  2  0
  7  8  1  0
  8  9  1  0
  9 10  3  0
  8  5  2  0
M  END
$$$$
