
     RDKit          3D

 10 10  0  0  0  0  0  0  0  0999 V2000
   11.5357   16.7780   57.0652 C   0  0  0  0  0  0  0  0  0  0  0  0
   11.1869   17.3992   58.2858 O   0  0  0  0  0  0  0  0  0  0  0  0
   11.8024   18.6045   58.6041 C   0  0  0  0  0  0  0  0  0  0  0  0
   11.5192   19.2646   59.7820 C   0  0  0  0  0  0  0  0  0  0  0  0
   12.1226   20.4631   60.1125 C   0  0  0  0  0  0  0  0  0  0  0  0
   12.7243   19.2051   57.7674 C   0  0  0  0  0  0  0  0  0  0  0  0
   13.3275   20.4027   58.0973 C   0  0  0  0  0  0  0  0  0  0  0  0
   13.0442   21.0648   59.2774 C   0  0  0  0  0  0  0  0  0  0  0  0
   13.6824   22.3099   59.6024 C   0  0  0  0  0  0  0  0  0  0  0  0
   14.1877   23.3230   59.8491 N   0  0  0  0  0  0  0  0  0  0  0  0
  1  2  1  0
  2  3  1  0
  3  4  2  0
  4  5  1  0
  3  6  1  0
  6  7  2  0
  7  8  1  0
  8  9  1  0
  9 10  3  0
  8  5  2  0
M  END
$$$$
