
     RDKit          3D

 10 10  0  0  0  0  0  0  0  0999 V2000
   11.1371   17.0539   57.7698 C   0  0  0  0  0  0  0  0  0  0  0  0
   11.8160   18.1537   57.1981 O   0  0  0  0  0  0  0  0  0  0  0  0
   12.1478   19.2189   58.0275 C   0  0  0  0  0  0  0  0  0  0  0  0
   11.8790   19.1847   59.3802 C   0  0  0  0  0  0  0  0  0  0  0  0
   12.2028   20.2354   60.2174 C   0  0  0  0  0  0  0  0  0  0  0  0
   12.7601   20.3625   57.5497 C   0  0  0  0  0  0  0  0  0  0  0  0
   13.0837   21.4125   58.3859 C   0  0  0  0  0  0  0  0  0  0  0  0
   12.8147   21.3790   59.7415 C   0  0  0  0  0  0  0  0  0  0  0  0
   13.1592   22.4818   60.5949 C   0  0  0  0  0  0  0  0  0  0  0  0
   13.4565   23.3657   61.2827 N   0  0  0  0  0  0  0  0  0  0  0  0
  1  2  1  0
  2  3  1  0
  3  4  2  0
  4  5  1  0
  3  6  1  0
  6  7  2  0
  7  8  1  0
  8  9  1  0
  9 10  3  0
  8  5  2  0
M  END
$$$$
