
     RDKit          3D

 10 10  0  0  0  0  0  0  0  0999 V2000
    9.4381   17.1443   58.2259 C   0  0  0  0  0  0  0  0  0  0  0  0
   10.5001   17.5343   57.3789 O   0  0  0  0  0  0  0  0  0  0  0  0
   11.2512   18.6460   57.7433 C   0  0  0  0  0  0  0  0  0  0  0  0
   11.1124   19.2286   58.9861 C   0  0  0  0  0  0  0  0  0  0  0  0
   11.8517   20.3337   59.3629 C   0  0  0  0  0  0  0  0  0  0  0  0
   12.1712   19.2261   56.8901 C   0  0  0  0  0  0  0  0  0  0  0  0
   12.9101   20.3303   57.2663 C   0  0  0  0  0  0  0  0  0  0  0  0
   12.7716   20.9147   58.5114 C   0  0  0  0  0  0  0  0  0  0  0  0
   13.5496   22.0632   58.8839 C   0  0  0  0  0  0  0  0  0  0  0  0
   14.1628   22.9951   59.1973 N   0  0  0  0  0  0  0  0  0  0  0  0
  1  2  1  0
  2  3  1  0
  3  4  2  0
  4  5  1  0
  3  6  1  0
  6  7  2  0
  7  8  1  0
  8  9  1  0
  9 10  3  0
  8  5  2  0
M  END
$$$$
