
     RDKit          3D

 10 10  0  0  0  0  0  0  0  0999 V2000
   10.8392   17.6778   62.5300 C   0  0  0  0  0  0  0  0  0  0  0  0
   10.7347   19.0159   62.0875 O   0  0  0  0  0  0  0  0  0  0  0  0
   11.4559   19.3885   60.9588 C   0  0  0  0  0  0  0  0  0  0  0  0
   11.8705   20.6908   60.7709 C   0  0  0  0  0  0  0  0  0  0  0  0
   12.5879   21.0764   59.6545 C   0  0  0  0  0  0  0  0  0  0  0  0
   11.7959   18.4847   59.9697 C   0  0  0  0  0  0  0  0  0  0  0  0
   12.5128   18.8697   58.8540 C   0  0  0  0  0  0  0  0  0  0  0  0
   12.9286   20.1745   58.6650 C   0  0  0  0  0  0  0  0  0  0  0  0
   13.6736   20.5551   57.4973 C   0  0  0  0  0  0  0  0  0  0  0  0
   14.2895   20.8499   56.5612 N   0  0  0  0  0  0  0  0  0  0  0  0
  1  2  1  0
  2  3  1  0
  3  4  2  0
  4  5  1  0
  3  6  1  0
  6  7  2  0
  7  8  1  0
  8  9  1  0
  9 10  3  0
  8  5  2  0
M  END
$$$$
