
     RDKit          3D

 10 10  0  0  0  0  0  0  0  0999 V2000
    9.2039   18.1148   60.1800 C   0  0  0  0  0  0  0  0  0  0  0  0
    9.9903   18.1340   59.0059 O   0  0  0  0  0  0  0  0  0  0  0  0
   10.9633   19.1200   58.8880 C   0  0  0  0  0  0  0  0  0  0  0  0
   11.2056   20.0137   59.9107 C   0  0  0  0  0  0  0  0  0  0  0  0
   12.1691   20.9990   59.8086 C   0  0  0  0  0  0  0  0  0  0  0  0
   11.7365   19.2606   57.7508 C   0  0  0  0  0  0  0  0  0  0  0  0
   12.6994   20.2450   57.6484 C   0  0  0  0  0  0  0  0  0  0  0  0
   12.9427   21.1409   58.6728 C   0  0  0  0  0  0  0  0  0  0  0  0
   13.9491   22.1581   58.5468 C   0  0  0  0  0  0  0  0  0  0  0  0
   14.7751   22.9646   58.4473 N   0  0  0  0  0  0  0  0  0  0  0  0
  1  2  1  0
  2  3  1  0
  3  4  2  0
  4  5  1  0
  3  6  1  0
  6  7  2  0
  7  8  1  0
  8  9  1  0
  9 10  3  0
  8  5  2  0
M  END
$$$$
