
     RDKit          3D

 10 10  0  0  0  0  0  0  0  0999 V2000
   10.9629   16.9403   57.6851 C   0  0  0  0  0  0  0  0  0  0  0  0
   11.7303   17.9962   57.1433 O   0  0  0  0  0  0  0  0  0  0  0  0
   12.0524   19.0626   57.9750 C   0  0  0  0  0  0  0  0  0  0  0  0
   12.6923   20.1835   57.4878 C   0  0  0  0  0  0  0  0  0  0  0  0
   13.0190   21.2514   58.3017 C   0  0  0  0  0  0  0  0  0  0  0  0
   11.7531   19.0617   59.3245 C   0  0  0  0  0  0  0  0  0  0  0  0
   12.0794   20.1286   60.1381 C   0  0  0  0  0  0  0  0  0  0  0  0
   12.7207   21.2521   59.6507 C   0  0  0  0  0  0  0  0  0  0  0  0
   13.0516   22.3517   60.5135 C   0  0  0  0  0  0  0  0  0  0  0  0
   13.3374   23.2388   61.2021 N   0  0  0  0  0  0  0  0  0  0  0  0
  1  2  1  0
  2  3  1  0
  3  4  2  0
  4  5  1  0
  3  6  1  0
  6  7  2  0
  7  8  1  0
  8  9  1  0
  9 10  3  0
  8  5  2  0
M  END
$$$$
