
     RDKit          3D

 10 10  0  0  0  0  0  0  0  0999 V2000
   11.4088   16.4360   56.5662 C   0  0  0  0  0  0  0  0  0  0  0  0
   11.2484   16.8913   57.8944 O   0  0  0  0  0  0  0  0  0  0  0  0
   11.7895   18.1270   58.2308 C   0  0  0  0  0  0  0  0  0  0  0  0
   11.5988   18.6762   59.4819 C   0  0  0  0  0  0  0  0  0  0  0  0
   12.1301   19.9031   59.8311 C   0  0  0  0  0  0  0  0  0  0  0  0
   12.5423   18.8692   57.3402 C   0  0  0  0  0  0  0  0  0  0  0  0
   13.0734   20.0952   57.6888 C   0  0  0  0  0  0  0  0  0  0  0  0
   12.8827   20.6463   58.9423 C   0  0  0  0  0  0  0  0  0  0  0  0
   13.4436   21.9233   59.2856 C   0  0  0  0  0  0  0  0  0  0  0  0
   13.9102   22.9509   59.5484 N   0  0  0  0  0  0  0  0  0  0  0  0
  1  2  1  0
  2  3  1  0
  3  4  2  0
  4  5  1  0
  3  6  1  0
  6  7  2  0
  7  8  1  0
  8  9  1  0
  9 10  3  0
  8  5  2  0
M  END
$$$$
