
     RDKit          3D

 10 10  0  0  0  0  0  0  0  0999 V2000
   11.2760   16.6304   56.3919 C   0  0  0  0  0  0  0  0  0  0  0  0
   10.9613   17.1655   57.6615 O   0  0  0  0  0  0  0  0  0  0  0  0
   11.5711   18.3571   58.0370 C   0  0  0  0  0  0  0  0  0  0  0  0
   12.4943   18.9779   57.2212 C   0  0  0  0  0  0  0  0  0  0  0  0
   13.1089   20.1623   57.5805 C   0  0  0  0  0  0  0  0  0  0  0  0
   11.2906   18.9826   59.2375 C   0  0  0  0  0  0  0  0  0  0  0  0
   11.9044   20.1661   59.5968 C   0  0  0  0  0  0  0  0  0  0  0  0
   12.8297   20.7888   58.7798 C   0  0  0  0  0  0  0  0  0  0  0  0
   13.4574   22.0199   59.1718 C   0  0  0  0  0  0  0  0  0  0  0  0
   13.9817   23.0038   59.4873 N   0  0  0  0  0  0  0  0  0  0  0  0
  1  2  1  0
  2  3  1  0
  3  4  2  0
  4  5  1  0
  3  6  1  0
  6  7  2  0
  7  8  1  0
  8  9  1  0
  9 10  3  0
  8  5  2  0
M  END
$$$$
