
     RDKit          3D

 10 10  0  0  0  0  0  0  0  0999 V2000
   10.9921   16.8619   57.8026 C   0  0  0  0  0  0  0  0  0  0  0  0
   11.6566   17.8751   57.0752 O   0  0  0  0  0  0  0  0  0  0  0  0
   12.1413   18.9724   57.7781 C   0  0  0  0  0  0  0  0  0  0  0  0
   12.0530   19.0385   59.1532 C   0  0  0  0  0  0  0  0  0  0  0  0
   12.5301   20.1222   59.8658 C   0  0  0  0  0  0  0  0  0  0  0  0
   12.7336   20.0497   57.1461 C   0  0  0  0  0  0  0  0  0  0  0  0
   13.2104   21.1327   57.8578 C   0  0  0  0  0  0  0  0  0  0  0  0
   13.1224   21.1997   59.2358 C   0  0  0  0  0  0  0  0  0  0  0  0
   13.6244   22.3353   59.9580 C   0  0  0  0  0  0  0  0  0  0  0  0
   14.0167   23.2633   60.5304 N   0  0  0  0  0  0  0  0  0  0  0  0
  1  2  1  0
  2  3  1  0
  3  4  2  0
  4  5  1  0
  3  6  1  0
  6  7  2  0
  7  8  1  0
  8  9  1  0
  9 10  3  0
  8  5  2  0
M  END
$$$$
