
     RDKit          3D

 10 10  0  0  0  0  0  0  0  0999 V2000
   11.2413   16.8107   56.8360 C   0  0  0  0  0  0  0  0  0  0  0  0
   11.0466   17.3526   58.1266 O   0  0  0  0  0  0  0  0  0  0  0  0
   11.6658   18.5604   58.4277 C   0  0  0  0  0  0  0  0  0  0  0  0
   11.5273   19.1470   59.6687 C   0  0  0  0  0  0  0  0  0  0  0  0
   12.1364   20.3469   59.9830 C   0  0  0  0  0  0  0  0  0  0  0  0
   12.4482   19.2367   57.5104 C   0  0  0  0  0  0  0  0  0  0  0  0
   13.0569   20.4358   57.8241 C   0  0  0  0  0  0  0  0  0  0  0  0
   12.9186   21.0241   59.0674 C   0  0  0  0  0  0  0  0  0  0  0  0
   13.5601   22.2722   59.3743 C   0  0  0  0  0  0  0  0  0  0  0  0
   14.0940   23.2688   59.6277 N   0  0  0  0  0  0  0  0  0  0  0  0
  1  2  1  0
  2  3  1  0
  3  4  2  0
  4  5  1  0
  3  6  1  0
  6  7  2  0
  7  8  1  0
  8  9  1  0
  9 10  3  0
  8  5  2  0
M  END
$$$$
