
     RDKit          3D

 10 10  0  0  0  0  0  0  0  0999 V2000
   11.1496   16.9288   57.1933 C   0  0  0  0  0  0  0  0  0  0  0  0
   10.9807   17.4814   58.4830 O   0  0  0  0  0  0  0  0  0  0  0  0
   11.6215   18.6818   58.7680 C   0  0  0  0  0  0  0  0  0  0  0  0
   12.3513   19.3503   57.8068 C   0  0  0  0  0  0  0  0  0  0  0  0
   12.9938   20.5441   58.0747 C   0  0  0  0  0  0  0  0  0  0  0  0
   11.5653   19.2690   60.0181 C   0  0  0  0  0  0  0  0  0  0  0  0
   12.2071   20.4618   60.2862 C   0  0  0  0  0  0  0  0  0  0  0  0
   12.9386   21.1324   59.3236 C   0  0  0  0  0  0  0  0  0  0  0  0
   13.5992   22.3724   59.6223 C   0  0  0  0  0  0  0  0  0  0  0  0
   14.1144   23.3823   59.8613 N   0  0  0  0  0  0  0  0  0  0  0  0
  1  2  1  0
  2  3  1  0
  3  4  2  0
  4  5  1  0
  3  6  1  0
  6  7  2  0
  7  8  1  0
  8  9  1  0
  9 10  3  0
  8  5  2  0
M  END
$$$$
