
     RDKit          3D

 10 10  0  0  0  0  0  0  0  0999 V2000
   11.0366   16.6843   56.8544 C   0  0  0  0  0  0  0  0  0  0  0  0
   10.8336   17.2838   58.1180 O   0  0  0  0  0  0  0  0  0  0  0  0
   11.4906   18.4793   58.3863 C   0  0  0  0  0  0  0  0  0  0  0  0
   11.4224   19.0708   59.6308 C   0  0  0  0  0  0  0  0  0  0  0  0
   12.0698   20.2586   59.9129 C   0  0  0  0  0  0  0  0  0  0  0  0
   12.2424   19.1379   57.4314 C   0  0  0  0  0  0  0  0  0  0  0  0
   12.8894   20.3249   57.7129 C   0  0  0  0  0  0  0  0  0  0  0  0
   12.8216   20.9182   58.9598 C   0  0  0  0  0  0  0  0  0  0  0  0
   13.5019   22.1535   59.2328 C   0  0  0  0  0  0  0  0  0  0  0  0
   14.0330   23.1584   59.4578 N   0  0  0  0  0  0  0  0  0  0  0  0
  1  2  1  0
  2  3  1  0
  3  4  2  0
  4  5  1  0
  3  6  1  0
  6  7  2  0
  7  8  1  0
  8  9  1  0
  9 10  3  0
  8  5  2  0
M  END
$$$$
