
     RDKit          3D

 10 10  0  0  0  0  0  0  0  0999 V2000
   11.2059   16.6823   56.8442 C   0  0  0  0  0  0  0  0  0  0  0  0
   10.9362   17.2894   58.0915 O   0  0  0  0  0  0  0  0  0  0  0  0
   11.5782   18.4866   58.3871 C   0  0  0  0  0  0  0  0  0  0  0  0
   12.4789   19.0527   57.5088 C   0  0  0  0  0  0  0  0  0  0  0  0
   13.1248   20.2420   57.7884 C   0  0  0  0  0  0  0  0  0  0  0  0
   11.3533   19.1722   59.5663 C   0  0  0  0  0  0  0  0  0  0  0  0
   11.9986   20.3605   59.8460 C   0  0  0  0  0  0  0  0  0  0  0  0
   12.9013   20.9284   58.9663 C   0  0  0  0  0  0  0  0  0  0  0  0
   13.5623   22.1656   59.2758 C   0  0  0  0  0  0  0  0  0  0  0  0
   14.1034   23.1550   59.5419 N   0  0  0  0  0  0  0  0  0  0  0  0
  1  2  1  0
  2  3  1  0
  3  4  2  0
  4  5  1  0
  3  6  1  0
  6  7  2  0
  7  8  1  0
  8  9  1  0
  9 10  3  0
  8  5  2  0
M  END
$$$$
