
     RDKit          3D

 10 10  0  0  0  0  0  0  0  0999 V2000
   10.1012   17.1695   58.0795 C   0  0  0  0  0  0  0  0  0  0  0  0
   11.0775   17.7963   57.2725 O   0  0  0  0  0  0  0  0  0  0  0  0
   11.7219   18.9186   57.7806 C   0  0  0  0  0  0  0  0  0  0  0  0
   12.5975   19.6533   57.0081 C   0  0  0  0  0  0  0  0  0  0  0  0
   13.2455   20.7709   57.4987 C   0  0  0  0  0  0  0  0  0  0  0  0
   11.5246   19.3587   59.0760 C   0  0  0  0  0  0  0  0  0  0  0  0
   12.1719   20.4754   59.5666 C   0  0  0  0  0  0  0  0  0  0  0  0
   13.0495   21.2122   58.7931 C   0  0  0  0  0  0  0  0  0  0  0  0
   13.7131   22.3711   59.3220 C   0  0  0  0  0  0  0  0  0  0  0  0
   14.2631   23.3037   59.7349 N   0  0  0  0  0  0  0  0  0  0  0  0
  1  2  1  0
  2  3  1  0
  3  4  2  0
  4  5  1  0
  3  6  1  0
  6  7  2  0
  7  8  1  0
  8  9  1  0
  9 10  3  0
  8  5  2  0
M  END
$$$$
