
     RDKit          3D

 10 10  0  0  0  0  0  0  0  0999 V2000
   12.0168   16.4269   57.1398 C   0  0  0  0  0  0  0  0  0  0  0  0
   11.2927   17.2282   58.0513 O   0  0  0  0  0  0  0  0  0  0  0  0
   11.8533   18.4379   58.4454 C   0  0  0  0  0  0  0  0  0  0  0  0
   11.4461   19.0741   59.5997 C   0  0  0  0  0  0  0  0  0  0  0  0
   11.9937   20.2766   60.0046 C   0  0  0  0  0  0  0  0  0  0  0  0
   12.8411   19.0667   57.7107 C   0  0  0  0  0  0  0  0  0  0  0  0
   13.3884   20.2683   58.1149 C   0  0  0  0  0  0  0  0  0  0  0  0
   12.9810   20.9065   59.2715 C   0  0  0  0  0  0  0  0  0  0  0  0
   13.5628   22.1563   59.6750 C   0  0  0  0  0  0  0  0  0  0  0  0
   14.0479   23.1544   60.0082 N   0  0  0  0  0  0  0  0  0  0  0  0
  1  2  1  0
  2  3  1  0
  3  4  2  0
  4  5  1  0
  3  6  1  0
  6  7  2  0
  7  8  1  0
  8  9  1  0
  9 10  3  0
  8  5  2  0
M  END
$$$$
