
     RDKit          3D

 10 10  0  0  0  0  0  0  0  0999 V2000
   10.9700   16.8642   57.7983 C   0  0  0  0  0  0  0  0  0  0  0  0
   11.6951   17.8747   57.1272 O   0  0  0  0  0  0  0  0  0  0  0  0
   12.1291   18.9682   57.8680 C   0  0  0  0  0  0  0  0  0  0  0  0
   11.9096   19.0453   59.2278 C   0  0  0  0  0  0  0  0  0  0  0  0
   12.3348   20.1254   59.9776 C   0  0  0  0  0  0  0  0  0  0  0  0
   12.7990   20.0307   57.2908 C   0  0  0  0  0  0  0  0  0  0  0  0
   13.2241   21.1101   58.0397 C   0  0  0  0  0  0  0  0  0  0  0  0
   13.0045   21.1881   59.4023 C   0  0  0  0  0  0  0  0  0  0  0  0
   13.4546   22.3198   60.1639 C   0  0  0  0  0  0  0  0  0  0  0  0
   13.7986   23.2388   60.7801 N   0  0  0  0  0  0  0  0  0  0  0  0
  1  2  1  0
  2  3  1  0
  3  4  2  0
  4  5  1  0
  3  6  1  0
  6  7  2  0
  7  8  1  0
  8  9  1  0
  9 10  3  0
  8  5  2  0
M  END
$$$$
