
     RDKit          3D

 10 10  0  0  0  0  0  0  0  0999 V2000
   11.5014   16.8276   56.9655 C   0  0  0  0  0  0  0  0  0  0  0  0
   11.1038   17.4797   58.1546 O   0  0  0  0  0  0  0  0  0  0  0  0
   11.7351   18.6728   58.4873 C   0  0  0  0  0  0  0  0  0  0  0  0
   11.5650   19.2520   59.7278 C   0  0  0  0  0  0  0  0  0  0  0  0
   12.1856   20.4374   60.0733 C   0  0  0  0  0  0  0  0  0  0  0  0
   12.5615   19.3411   57.6034 C   0  0  0  0  0  0  0  0  0  0  0  0
   13.1819   20.5256   57.9482 C   0  0  0  0  0  0  0  0  0  0  0  0
   13.0119   21.1066   59.1911 C   0  0  0  0  0  0  0  0  0  0  0  0
   13.6661   22.3394   59.5307 C   0  0  0  0  0  0  0  0  0  0  0  0
   14.2061   23.3316   59.7887 N   0  0  0  0  0  0  0  0  0  0  0  0
  1  2  1  0
  2  3  1  0
  3  4  2  0
  4  5  1  0
  3  6  1  0
  6  7  2  0
  7  8  1  0
  8  9  1  0
  9 10  3  0
  8  5  2  0
M  END
$$$$
