
     RDKit          3D

 10 10  0  0  0  0  0  0  0  0999 V2000
   11.5939   16.4122   57.7876 C   0  0  0  0  0  0  0  0  0  0  0  0
   11.8402   17.6418   57.1360 O   0  0  0  0  0  0  0  0  0  0  0  0
   12.2172   18.7296   57.9154 C   0  0  0  0  0  0  0  0  0  0  0  0
   12.6650   19.9015   57.3414 C   0  0  0  0  0  0  0  0  0  0  0  0
   13.0432   20.9912   58.1025 C   0  0  0  0  0  0  0  0  0  0  0  0
   12.1655   18.7003   59.2964 C   0  0  0  0  0  0  0  0  0  0  0  0
   12.5433   19.7890   60.0573 C   0  0  0  0  0  0  0  0  0  0  0  0
   12.9922   20.9636   59.4829 C   0  0  0  0  0  0  0  0  0  0  0  0
   13.3807   22.0851   60.2919 C   0  0  0  0  0  0  0  0  0  0  0  0
   13.7134   22.9842   60.9429 N   0  0  0  0  0  0  0  0  0  0  0  0
  1  2  1  0
  2  3  1  0
  3  4  2  0
  4  5  1  0
  3  6  1  0
  6  7  2  0
  7  8  1  0
  8  9  1  0
  9 10  3  0
  8  5  2  0
M  END
$$$$
