
     RDKit          3D

 10 10  0  0  0  0  0  0  0  0999 V2000
   11.0478   16.6924   56.6502 C   0  0  0  0  0  0  0  0  0  0  0  0
   10.9527   17.1755   57.9749 O   0  0  0  0  0  0  0  0  0  0  0  0
   11.5638   18.3881   58.2730 C   0  0  0  0  0  0  0  0  0  0  0  0
   12.2577   19.0959   57.3135 C   0  0  0  0  0  0  0  0  0  0  0  0
   12.8704   20.3023   57.5944 C   0  0  0  0  0  0  0  0  0  0  0  0
   11.5121   18.9490   59.5354 C   0  0  0  0  0  0  0  0  0  0  0  0
   12.1242   20.1545   59.8165 C   0  0  0  0  0  0  0  0  0  0  0  0
   12.8197   20.8644   58.8555 C   0  0  0  0  0  0  0  0  0  0  0  0
   13.4496   22.1169   59.1679 C   0  0  0  0  0  0  0  0  0  0  0  0
   13.9582   23.1220   59.4393 N   0  0  0  0  0  0  0  0  0  0  0  0
  1  2  1  0
  2  3  1  0
  3  4  2  0
  4  5  1  0
  3  6  1  0
  6  7  2  0
  7  8  1  0
  8  9  1  0
  9 10  3  0
  8  5  2  0
M  END
$$$$
