
     RDKit          3D

 10 10  0  0  0  0  0  0  0  0999 V2000
   11.1772   16.6167   57.6493 C   0  0  0  0  0  0  0  0  0  0  0  0
   11.7871   17.7386   57.0437 O   0  0  0  0  0  0  0  0  0  0  0  0
   12.1396   18.8088   57.8580 C   0  0  0  0  0  0  0  0  0  0  0  0
   12.6660   19.9690   57.3287 C   0  0  0  0  0  0  0  0  0  0  0  0
   13.0212   21.0413   58.1249 C   0  0  0  0  0  0  0  0  0  0  0  0
   11.9847   18.7729   59.2312 C   0  0  0  0  0  0  0  0  0  0  0  0
   12.3395   19.8441   60.0270 C   0  0  0  0  0  0  0  0  0  0  0  0
   12.8670   21.0070   59.4974 C   0  0  0  0  0  0  0  0  0  0  0  0
   13.2299   22.1104   60.3424 C   0  0  0  0  0  0  0  0  0  0  0  0
   13.5303   23.0101   61.0080 N   0  0  0  0  0  0  0  0  0  0  0  0
  1  2  1  0
  2  3  1  0
  3  4  2  0
  4  5  1  0
  3  6  1  0
  6  7  2  0
  7  8  1  0
  8  9  1  0
  9 10  3  0
  8  5  2  0
M  END
$$$$
