
     RDKit          3D

 10 10  0  0  0  0  0  0  0  0999 V2000
   11.3593   16.8136   56.9236 C   0  0  0  0  0  0  0  0  0  0  0  0
   10.9326   17.4760   58.0968 O   0  0  0  0  0  0  0  0  0  0  0  0
   11.5663   18.6642   58.4428 C   0  0  0  0  0  0  0  0  0  0  0  0
   11.4298   19.2084   59.7031 C   0  0  0  0  0  0  0  0  0  0  0  0
   12.0532   20.3884   60.0620 C   0  0  0  0  0  0  0  0  0  0  0  0
   12.3617   19.3618   57.5531 C   0  0  0  0  0  0  0  0  0  0  0  0
   12.9847   20.5408   57.9114 C   0  0  0  0  0  0  0  0  0  0  0  0
   12.8485   21.0869   59.1741 C   0  0  0  0  0  0  0  0  0  0  0  0
   13.5049   22.3147   59.5274 C   0  0  0  0  0  0  0  0  0  0  0  0
   14.0406   23.2967   59.8297 N   0  0  0  0  0  0  0  0  0  0  0  0
  1  2  1  0
  2  3  1  0
  3  4  2  0
  4  5  1  0
  3  6  1  0
  6  7  2  0
  7  8  1  0
  8  9  1  0
  9 10  3  0
  8  5  2  0
M  END
$$$$
