
     RDKit          3D

 10 10  0  0  0  0  0  0  0  0999 V2000
   10.9816   16.7990   57.7877 C   0  0  0  0  0  0  0  0  0  0  0  0
   11.5526   17.8563   57.0438 O   0  0  0  0  0  0  0  0  0  0  0  0
   12.0555   18.9484   57.7418 C   0  0  0  0  0  0  0  0  0  0  0  0
   12.0075   19.0023   59.1195 C   0  0  0  0  0  0  0  0  0  0  0  0
   12.5031   20.0807   59.8273 C   0  0  0  0  0  0  0  0  0  0  0  0
   12.6270   20.0325   57.1023 C   0  0  0  0  0  0  0  0  0  0  0  0
   13.1223   21.1103   57.8092 C   0  0  0  0  0  0  0  0  0  0  0  0
   13.0746   21.1650   59.1898 C   0  0  0  0  0  0  0  0  0  0  0  0
   13.5953   22.2953   59.9070 C   0  0  0  0  0  0  0  0  0  0  0  0
   14.0293   23.2097   60.4711 N   0  0  0  0  0  0  0  0  0  0  0  0
  1  2  1  0
  2  3  1  0
  3  4  2  0
  4  5  1  0
  3  6  1  0
  6  7  2  0
  7  8  1  0
  8  9  1  0
  9 10  3  0
  8  5  2  0
M  END
$$$$
