
     RDKit          3D

 10 10  0  0  0  0  0  0  0  0999 V2000
   10.9025   17.1933   57.8951 C   0  0  0  0  0  0  0  0  0  0  0  0
   11.6816   18.1581   57.2172 O   0  0  0  0  0  0  0  0  0  0  0  0
   12.1365   19.2550   57.9402 C   0  0  0  0  0  0  0  0  0  0  0  0
   12.8833   20.2483   57.3412 C   0  0  0  0  0  0  0  0  0  0  0  0
   13.3425   21.3445   58.0463 C   0  0  0  0  0  0  0  0  0  0  0  0
   11.8695   19.4122   59.2874 C   0  0  0  0  0  0  0  0  0  0  0  0
   12.3281   20.5075   59.9922 C   0  0  0  0  0  0  0  0  0  0  0  0
   13.0765   21.5033   59.3928 C   0  0  0  0  0  0  0  0  0  0  0  0
   13.5445   22.6350   60.1435 C   0  0  0  0  0  0  0  0  0  0  0  0
   13.9033   23.5505   60.7564 N   0  0  0  0  0  0  0  0  0  0  0  0
  1  2  1  0
  2  3  1  0
  3  4  2  0
  4  5  1  0
  3  6  1  0
  6  7  2  0
  7  8  1  0
  8  9  1  0
  9 10  3  0
  8  5  2  0
M  END
$$$$
