
     RDKit          3D

 10 10  0  0  0  0  0  0  0  0999 V2000
    9.5791   17.7265   59.0250 C   0  0  0  0  0  0  0  0  0  0  0  0
   10.4612   18.1670   58.0125 O   0  0  0  0  0  0  0  0  0  0  0  0
   11.3347   19.2056   58.3142 C   0  0  0  0  0  0  0  0  0  0  0  0
   12.2428   19.6709   57.3856 C   0  0  0  0  0  0  0  0  0  0  0  0
   13.1173   20.7022   57.6705 C   0  0  0  0  0  0  0  0  0  0  0  0
   11.3439   19.8259   59.5495 C   0  0  0  0  0  0  0  0  0  0  0  0
   12.2177   20.8565   59.8345 C   0  0  0  0  0  0  0  0  0  0  0  0
   13.1279   21.3233   58.9045 C   0  0  0  0  0  0  0  0  0  0  0  0
   14.0286   22.3966   59.2204 C   0  0  0  0  0  0  0  0  0  0  0  0
   14.7534   23.2693   59.4564 N   0  0  0  0  0  0  0  0  0  0  0  0
  1  2  1  0
  2  3  1  0
  3  4  2  0
  4  5  1  0
  3  6  1  0
  6  7  2  0
  7  8  1  0
  8  9  1  0
  9 10  3  0
  8  5  2  0
M  END
$$$$
