
     RDKit          3D

 10 10  0  0  0  0  0  0  0  0999 V2000
    9.0231   18.5045   60.9253 C   0  0  0  0  0  0  0  0  0  0  0  0
    9.5513   18.4768   59.6148 O   0  0  0  0  0  0  0  0  0  0  0  0
   10.6151   19.3226   59.3216 C   0  0  0  0  0  0  0  0  0  0  0  0
   11.1243   19.4169   58.0429 C   0  0  0  0  0  0  0  0  0  0  0  0
   12.1810   20.2529   57.7359 C   0  0  0  0  0  0  0  0  0  0  0  0
   11.2179   20.1101   60.2846 C   0  0  0  0  0  0  0  0  0  0  0  0
   12.2738   20.9455   59.9782 C   0  0  0  0  0  0  0  0  0  0  0  0
   12.7846   21.0406   58.6972 C   0  0  0  0  0  0  0  0  0  0  0  0
   13.8838   21.9158   58.3986 C   0  0  0  0  0  0  0  0  0  0  0  0
   14.7573   22.6365   58.1532 N   0  0  0  0  0  0  0  0  0  0  0  0
  1  2  1  0
  2  3  1  0
  3  4  2  0
  4  5  1  0
  3  6  1  0
  6  7  2  0
  7  8  1  0
  8  9  1  0
  9 10  3  0
  8  5  2  0
M  END
$$$$
