
     RDKit          3D

 10 10  0  0  0  0  0  0  0  0999 V2000
   11.3303   16.5764   57.8100 C   0  0  0  0  0  0  0  0  0  0  0  0
   11.9205   17.6953   57.1800 O   0  0  0  0  0  0  0  0  0  0  0  0
   12.2516   18.7902   57.9702 C   0  0  0  0  0  0  0  0  0  0  0  0
   11.9242   18.8324   59.3097 C   0  0  0  0  0  0  0  0  0  0  0  0
   12.2463   19.9134   60.1080 C   0  0  0  0  0  0  0  0  0  0  0  0
   12.9212   19.8888   57.4646 C   0  0  0  0  0  0  0  0  0  0  0  0
   13.2433   20.9691   58.2621 C   0  0  0  0  0  0  0  0  0  0  0  0
   12.9155   21.0122   59.6044 C   0  0  0  0  0  0  0  0  0  0  0  0
   13.2595   22.1454   60.4172 C   0  0  0  0  0  0  0  0  0  0  0  0
   13.5318   23.0491   61.0894 N   0  0  0  0  0  0  0  0  0  0  0  0
  1  2  1  0
  2  3  1  0
  3  4  2  0
  4  5  1  0
  3  6  1  0
  6  7  2  0
  7  8  1  0
  8  9  1  0
  9 10  3  0
  8  5  2  0
M  END
$$$$
