
     RDKit          3D

 10 10  0  0  0  0  0  0  0  0999 V2000
   11.0882   16.8088   57.6538 C   0  0  0  0  0  0  0  0  0  0  0  0
   11.7866   17.9115   57.1120 O   0  0  0  0  0  0  0  0  0  0  0  0
   12.0977   18.9680   57.9604 C   0  0  0  0  0  0  0  0  0  0  0  0
   11.7634   18.9349   59.2985 C   0  0  0  0  0  0  0  0  0  0  0  0
   12.0658   19.9769   60.1543 C   0  0  0  0  0  0  0  0  0  0  0  0
   12.7534   20.1012   57.5170 C   0  0  0  0  0  0  0  0  0  0  0  0
   13.0557   21.1427   58.3718 C   0  0  0  0  0  0  0  0  0  0  0  0
   12.7210   21.1103   59.7127 C   0  0  0  0  0  0  0  0  0  0  0  0
   13.0444   22.2040   60.5858 C   0  0  0  0  0  0  0  0  0  0  0  0
   13.3156   23.0951   61.2752 N   0  0  0  0  0  0  0  0  0  0  0  0
  1  2  1  0
  2  3  1  0
  3  4  2  0
  4  5  1  0
  3  6  1  0
  6  7  2  0
  7  8  1  0
  8  9  1  0
  9 10  3  0
  8  5  2  0
M  END
$$$$
