
     RDKit          3D

 10 10  0  0  0  0  0  0  0  0999 V2000
   11.1457   16.7941   56.9871 C   0  0  0  0  0  0  0  0  0  0  0  0
   11.0012   17.3459   58.2800 O   0  0  0  0  0  0  0  0  0  0  0  0
   11.6435   18.5486   58.5520 C   0  0  0  0  0  0  0  0  0  0  0  0
   11.5519   19.1454   59.7924 C   0  0  0  0  0  0  0  0  0  0  0  0
   12.1844   20.3405   60.0780 C   0  0  0  0  0  0  0  0  0  0  0  0
   12.4033   19.2093   57.6049 C   0  0  0  0  0  0  0  0  0  0  0  0
   13.0354   20.4034   57.8899 C   0  0  0  0  0  0  0  0  0  0  0  0
   12.9441   21.0021   59.1326 C   0  0  0  0  0  0  0  0  0  0  0  0
   13.6093   22.2448   59.4093 C   0  0  0  0  0  0  0  0  0  0  0  0
   14.1400   23.2458   59.6518 N   0  0  0  0  0  0  0  0  0  0  0  0
  1  2  1  0
  2  3  1  0
  3  4  2  0
  4  5  1  0
  3  6  1  0
  6  7  2  0
  7  8  1  0
  8  9  1  0
  9 10  3  0
  8  5  2  0
M  END
$$$$
