
     RDKit          3D

 10 10  0  0  0  0  0  0  0  0999 V2000
   11.4593   16.5368   56.9872 C   0  0  0  0  0  0  0  0  0  0  0  0
   10.9806   17.2890   58.0836 O   0  0  0  0  0  0  0  0  0  0  0  0
   11.6526   18.4602   58.4150 C   0  0  0  0  0  0  0  0  0  0  0  0
   11.2327   19.2560   59.4607 C   0  0  0  0  0  0  0  0  0  0  0  0
   11.8900   20.4226   59.8022 C   0  0  0  0  0  0  0  0  0  0  0  0
   12.7690   18.8906   57.7228 C   0  0  0  0  0  0  0  0  0  0  0  0
   13.4261   20.0563   58.0636 C   0  0  0  0  0  0  0  0  0  0  0  0
   13.0059   20.8543   59.1114 C   0  0  0  0  0  0  0  0  0  0  0  0
   13.7032   22.0635   59.4503 C   0  0  0  0  0  0  0  0  0  0  0  0
   14.2719   23.0304   59.7409 N   0  0  0  0  0  0  0  0  0  0  0  0
  1  2  1  0
  2  3  1  0
  3  4  2  0
  4  5  1  0
  3  6  1  0
  6  7  2  0
  7  8  1  0
  8  9  1  0
  9 10  3  0
  8  5  2  0
M  END
$$$$
