
     RDKit          3D

 10 10  0  0  0  0  0  0  0  0999 V2000
   10.9517   16.6107   57.6819 C   0  0  0  0  0  0  0  0  0  0  0  0
   11.5777   17.6361   56.9376 O   0  0  0  0  0  0  0  0  0  0  0  0
   12.0628   18.7409   57.6282 C   0  0  0  0  0  0  0  0  0  0  0  0
   11.9922   18.8137   59.0040 C   0  0  0  0  0  0  0  0  0  0  0  0
   12.4699   19.9049   59.7046 C   0  0  0  0  0  0  0  0  0  0  0  0
   12.6382   19.8194   56.9828 C   0  0  0  0  0  0  0  0  0  0  0  0
   13.1156   20.9100   57.6824 C   0  0  0  0  0  0  0  0  0  0  0  0
   13.0452   20.9837   59.0611 C   0  0  0  0  0  0  0  0  0  0  0  0
   13.5476   22.1271   59.7706 C   0  0  0  0  0  0  0  0  0  0  0  0
   13.9492   23.0609   60.3268 N   0  0  0  0  0  0  0  0  0  0  0  0
  1  2  1  0
  2  3  1  0
  3  4  2  0
  4  5  1  0
  3  6  1  0
  6  7  2  0
  7  8  1  0
  8  9  1  0
  9 10  3  0
  8  5  2  0
M  END
$$$$
