
     RDKit          3D

 10 10  0  0  0  0  0  0  0  0999 V2000
   12.3026   16.3693   57.1522 C   0  0  0  0  0  0  0  0  0  0  0  0
   11.5335   17.0192   58.1439 O   0  0  0  0  0  0  0  0  0  0  0  0
   11.9648   18.2618   58.5942 C   0  0  0  0  0  0  0  0  0  0  0  0
   11.5141   18.7875   59.7874 C   0  0  0  0  0  0  0  0  0  0  0  0
   11.9333   20.0210   60.2483 C   0  0  0  0  0  0  0  0  0  0  0  0
   12.8610   19.0346   57.8798 C   0  0  0  0  0  0  0  0  0  0  0  0
   13.2802   20.2671   58.3401 C   0  0  0  0  0  0  0  0  0  0  0  0
   12.8290   20.7946   59.5356 C   0  0  0  0  0  0  0  0  0  0  0  0
   13.2771   22.0789   59.9972 C   0  0  0  0  0  0  0  0  0  0  0  0
   13.6237   23.1237   60.3591 N   0  0  0  0  0  0  0  0  0  0  0  0
  1  2  1  0
  2  3  1  0
  3  4  2  0
  4  5  1  0
  3  6  1  0
  6  7  2  0
  7  8  1  0
  8  9  1  0
  9 10  3  0
  8  5  2  0
M  END
$$$$
