
     RDKit          3D

 10 10  0  0  0  0  0  0  0  0999 V2000
   10.8431   16.7902   57.6366 C   0  0  0  0  0  0  0  0  0  0  0  0
   11.6752   17.7727   57.0538 O   0  0  0  0  0  0  0  0  0  0  0  0
   12.0516   18.8577   57.8372 C   0  0  0  0  0  0  0  0  0  0  0  0
   12.7258   19.9328   57.2961 C   0  0  0  0  0  0  0  0  0  0  0  0
   13.1067   21.0183   58.0617 C   0  0  0  0  0  0  0  0  0  0  0  0
   11.7750   18.9214   59.1901 C   0  0  0  0  0  0  0  0  0  0  0  0
   12.1554   20.0060   59.9555 C   0  0  0  0  0  0  0  0  0  0  0  0
   12.8310   21.0837   59.4139 C   0  0  0  0  0  0  0  0  0  0  0  0
   13.2181   22.2027   60.2271 C   0  0  0  0  0  0  0  0  0  0  0  0
   13.5337   23.1162   60.8663 N   0  0  0  0  0  0  0  0  0  0  0  0
  1  2  1  0
  2  3  1  0
  3  4  2  0
  4  5  1  0
  3  6  1  0
  6  7  2  0
  7  8  1  0
  8  9  1  0
  9 10  3  0
  8  5  2  0
M  END
$$$$
