
     RDKit          3D

 10 10  0  0  0  0  0  0  0  0999 V2000
    9.7062   18.3205   61.3365 C   0  0  0  0  0  0  0  0  0  0  0  0
   10.1226   18.1453   59.9974 O   0  0  0  0  0  0  0  0  0  0  0  0
   11.0463   19.0451   59.4779 C   0  0  0  0  0  0  0  0  0  0  0  0
   11.5161   20.1032   60.2282 C   0  0  0  0  0  0  0  0  0  0  0  0
   12.4341   21.0058   59.7259 C   0  0  0  0  0  0  0  0  0  0  0  0
   11.5425   18.9328   58.1925 C   0  0  0  0  0  0  0  0  0  0  0  0
   12.4598   19.8345   57.6904 C   0  0  0  0  0  0  0  0  0  0  0  0
   12.9310   20.8951   58.4416 C   0  0  0  0  0  0  0  0  0  0  0  0
   13.8854   21.8225   57.9009 C   0  0  0  0  0  0  0  0  0  0  0  0
   14.6409   22.5847   57.4641 N   0  0  0  0  0  0  0  0  0  0  0  0
  1  2  1  0
  2  3  1  0
  3  4  2  0
  4  5  1  0
  3  6  1  0
  6  7  2  0
  7  8  1  0
  8  9  1  0
  9 10  3  0
  8  5  2  0
M  END
$$$$
