
     RDKit          3D

 10 10  0  0  0  0  0  0  0  0999 V2000
   11.1633   16.6627   57.6587 C   0  0  0  0  0  0  0  0  0  0  0  0
   11.7132   17.8110   57.0453 O   0  0  0  0  0  0  0  0  0  0  0  0
   12.0861   18.8723   57.8624 C   0  0  0  0  0  0  0  0  0  0  0  0
   12.6165   20.0312   57.3343 C   0  0  0  0  0  0  0  0  0  0  0  0
   12.9919   21.0945   58.1332 C   0  0  0  0  0  0  0  0  0  0  0  0
   11.9484   18.8281   59.2371 C   0  0  0  0  0  0  0  0  0  0  0  0
   12.3234   19.8904   60.0357 C   0  0  0  0  0  0  0  0  0  0  0  0
   12.8550   21.0520   59.5074 C   0  0  0  0  0  0  0  0  0  0  0  0
   13.2390   22.1461   60.3552 C   0  0  0  0  0  0  0  0  0  0  0  0
   13.5675   23.0212   61.0400 N   0  0  0  0  0  0  0  0  0  0  0  0
  1  2  1  0
  2  3  1  0
  3  4  2  0
  4  5  1  0
  3  6  1  0
  6  7  2  0
  7  8  1  0
  8  9  1  0
  9 10  3  0
  8  5  2  0
M  END
$$$$
