
     RDKit          3D

 10 10  0  0  0  0  0  0  0  0999 V2000
   10.9632   16.6467   57.6958 C   0  0  0  0  0  0  0  0  0  0  0  0
   11.5152   17.7318   56.9781 O   0  0  0  0  0  0  0  0  0  0  0  0
   11.9800   18.8242   57.7017 C   0  0  0  0  0  0  0  0  0  0  0  0
   12.6982   19.8332   57.0940 C   0  0  0  0  0  0  0  0  0  0  0  0
   13.1668   20.9251   57.7996 C   0  0  0  0  0  0  0  0  0  0  0  0
   11.7517   18.9611   59.0582 C   0  0  0  0  0  0  0  0  0  0  0  0
   12.2198   20.0520   59.7636 C   0  0  0  0  0  0  0  0  0  0  0  0
   12.9395   21.0635   59.1553 C   0  0  0  0  0  0  0  0  0  0  0  0
   13.4179   22.1904   59.9067 C   0  0  0  0  0  0  0  0  0  0  0  0
   13.8184   23.1021   60.4992 N   0  0  0  0  0  0  0  0  0  0  0  0
  1  2  1  0
  2  3  1  0
  3  4  2  0
  4  5  1  0
  3  6  1  0
  6  7  2  0
  7  8  1  0
  8  9  1  0
  9 10  3  0
  8  5  2  0
M  END
$$$$
