
     RDKit          3D

 10 10  0  0  0  0  0  0  0  0999 V2000
   11.0464   16.9687   57.8623 C   0  0  0  0  0  0  0  0  0  0  0  0
   11.6502   18.0305   57.1515 O   0  0  0  0  0  0  0  0  0  0  0  0
   12.1429   19.1071   57.8802 C   0  0  0  0  0  0  0  0  0  0  0  0
   12.6656   20.2185   57.2519 C   0  0  0  0  0  0  0  0  0  0  0  0
   13.1591   21.2962   57.9623 C   0  0  0  0  0  0  0  0  0  0  0  0
   12.1377   19.1259   59.2624 C   0  0  0  0  0  0  0  0  0  0  0  0
   12.6307   20.2026   59.9726 C   0  0  0  0  0  0  0  0  0  0  0  0
   13.1547   21.3168   59.3438 C   0  0  0  0  0  0  0  0  0  0  0  0
   13.6627   22.4269   60.1006 C   0  0  0  0  0  0  0  0  0  0  0  0
   14.0607   23.3348   60.7004 N   0  0  0  0  0  0  0  0  0  0  0  0
  1  2  1  0
  2  3  1  0
  3  4  2  0
  4  5  1  0
  3  6  1  0
  6  7  2  0
  7  8  1  0
  8  9  1  0
  9 10  3  0
  8  5  2  0
M  END
$$$$
