
     RDKit          3D

 10 10  0  0  0  0  0  0  0  0999 V2000
   10.9957   16.2281   57.8818 C   0  0  0  0  0  0  0  0  0  0  0  0
   11.6025   17.1828   57.0347 O   0  0  0  0  0  0  0  0  0  0  0  0
   12.0978   18.3466   57.6120 C   0  0  0  0  0  0  0  0  0  0  0  0
   12.1530   18.4996   58.9819 C   0  0  0  0  0  0  0  0  0  0  0  0
   12.6425   19.6501   59.5706 C   0  0  0  0  0  0  0  0  0  0  0  0
   12.5590   19.4069   56.8544 C   0  0  0  0  0  0  0  0  0  0  0  0
   13.0482   20.5566   57.4423 C   0  0  0  0  0  0  0  0  0  0  0  0
   13.1038   20.7107   58.8150 C   0  0  0  0  0  0  0  0  0  0  0  0
   13.6164   21.9148   59.4072 C   0  0  0  0  0  0  0  0  0  0  0  0
   14.0323   22.8762   59.9025 N   0  0  0  0  0  0  0  0  0  0  0  0
  1  2  1  0
  2  3  1  0
  3  4  2  0
  4  5  1  0
  3  6  1  0
  6  7  2  0
  7  8  1  0
  8  9  1  0
  9 10  3  0
  8  5  2  0
M  END
$$$$
