
     RDKit          3D

 10 10  0  0  0  0  0  0  0  0999 V2000
   11.7294   16.8010   56.9451 C   0  0  0  0  0  0  0  0  0  0  0  0
   11.3261   17.3243   58.1944 O   0  0  0  0  0  0  0  0  0  0  0  0
   11.8701   18.5376   58.6003 C   0  0  0  0  0  0  0  0  0  0  0  0
   11.5761   19.0773   59.8354 C   0  0  0  0  0  0  0  0  0  0  0  0
   12.1089   20.2820   60.2531 C   0  0  0  0  0  0  0  0  0  0  0  0
   12.7283   19.2660   57.7980 C   0  0  0  0  0  0  0  0  0  0  0  0
   13.2608   20.4698   58.2150 C   0  0  0  0  0  0  0  0  0  0  0  0
   12.9668   21.0113   59.4525 C   0  0  0  0  0  0  0  0  0  0  0  0
   13.5311   22.2652   59.8679 C   0  0  0  0  0  0  0  0  0  0  0  0
   13.9809   23.2848   60.1853 N   0  0  0  0  0  0  0  0  0  0  0  0
  1  2  1  0
  2  3  1  0
  3  4  2  0
  4  5  1  0
  3  6  1  0
  6  7  2  0
  7  8  1  0
  8  9  1  0
  9 10  3  0
  8  5  2  0
M  END
$$$$
