
     RDKit          3D

 10 10  0  0  0  0  0  0  0  0999 V2000
    9.1335   18.1731   60.3110 C   0  0  0  0  0  0  0  0  0  0  0  0
    9.8600   18.1670   59.0988 O   0  0  0  0  0  0  0  0  0  0  0  0
   10.8569   19.1214   58.9304 C   0  0  0  0  0  0  0  0  0  0  0  0
   11.5530   19.2288   57.7442 C   0  0  0  0  0  0  0  0  0  0  0  0
   12.5463   20.1720   57.5615 C   0  0  0  0  0  0  0  0  0  0  0  0
   11.2046   20.0089   59.9315 C   0  0  0  0  0  0  0  0  0  0  0  0
   12.1970   20.9515   59.7494 C   0  0  0  0  0  0  0  0  0  0  0  0
   12.8951   21.0598   58.5610 C   0  0  0  0  0  0  0  0  0  0  0  0
   13.9243   22.0473   58.3913 C   0  0  0  0  0  0  0  0  0  0  0  0
   14.7651   22.8352   58.2691 N   0  0  0  0  0  0  0  0  0  0  0  0
  1  2  1  0
  2  3  1  0
  3  4  2  0
  4  5  1  0
  3  6  1  0
  6  7  2  0
  7  8  1  0
  8  9  1  0
  9 10  3  0
  8  5  2  0
M  END
$$$$
