
     RDKit          3D

 10 10  0  0  0  0  0  0  0  0999 V2000
    9.5752   18.7548   62.0954 C   0  0  0  0  0  0  0  0  0  0  0  0
    9.8291   18.4803   60.7325 O   0  0  0  0  0  0  0  0  0  0  0  0
   10.7631   19.2692   60.0707 C   0  0  0  0  0  0  0  0  0  0  0  0
   11.0537   19.0691   58.7370 C   0  0  0  0  0  0  0  0  0  0  0  0
   11.9794   19.8448   58.0654 C   0  0  0  0  0  0  0  0  0  0  0  0
   11.4478   20.2893   60.7042 C   0  0  0  0  0  0  0  0  0  0  0  0
   12.3729   21.0646   60.0335 C   0  0  0  0  0  0  0  0  0  0  0  0
   12.6646   20.8647   58.6970 C   0  0  0  0  0  0  0  0  0  0  0  0
   13.6304   21.6821   58.0170 C   0  0  0  0  0  0  0  0  0  0  0  0
   14.4016   22.3358   57.4508 N   0  0  0  0  0  0  0  0  0  0  0  0
  1  2  1  0
  2  3  1  0
  3  4  2  0
  4  5  1  0
  3  6  1  0
  6  7  2  0
  7  8  1  0
  8  9  1  0
  9 10  3  0
  8  5  2  0
M  END
$$$$
