
     RDKit          3D

 10 10  0  0  0  0  0  0  0  0999 V2000
   11.7817   16.7465   57.0592 C   0  0  0  0  0  0  0  0  0  0  0  0
   11.2968   17.3810   58.2252 O   0  0  0  0  0  0  0  0  0  0  0  0
   11.8742   18.5891   58.5992 C   0  0  0  0  0  0  0  0  0  0  0  0
   11.5362   19.2083   59.7847 C   0  0  0  0  0  0  0  0  0  0  0  0
   12.1013   20.4090   60.1702 C   0  0  0  0  0  0  0  0  0  0  0  0
   12.8110   19.2331   57.8128 C   0  0  0  0  0  0  0  0  0  0  0  0
   13.3760   20.4329   58.1977 C   0  0  0  0  0  0  0  0  0  0  0  0
   13.0378   21.0541   59.3855 C   0  0  0  0  0  0  0  0  0  0  0  0
   13.6369   22.3023   59.7681 C   0  0  0  0  0  0  0  0  0  0  0  0
   14.1017   23.3173   60.0785 N   0  0  0  0  0  0  0  0  0  0  0  0
  1  2  1  0
  2  3  1  0
  3  4  2  0
  4  5  1  0
  3  6  1  0
  6  7  2  0
  7  8  1  0
  8  9  1  0
  9 10  3  0
  8  5  2  0
M  END
$$$$
