
     RDKit          3D

 10 10  0  0  0  0  0  0  0  0999 V2000
   11.3608   16.9197   57.8111 C   0  0  0  0  0  0  0  0  0  0  0  0
   12.0286   18.0490   57.2858 O   0  0  0  0  0  0  0  0  0  0  0  0
   12.2901   19.1108   58.1444 C   0  0  0  0  0  0  0  0  0  0  0  0
   11.9857   19.0375   59.4880 C   0  0  0  0  0  0  0  0  0  0  0  0
   12.2394   20.0842   60.3539 C   0  0  0  0  0  0  0  0  0  0  0  0
   12.8643   20.2893   57.7060 C   0  0  0  0  0  0  0  0  0  0  0  0
   13.1181   21.3354   58.5709 C   0  0  0  0  0  0  0  0  0  0  0  0
   12.8133   21.2628   59.9174 C   0  0  0  0  0  0  0  0  0  0  0  0
   13.0851   22.3621   60.8010 C   0  0  0  0  0  0  0  0  0  0  0  0
   13.3141   23.2584   61.4988 N   0  0  0  0  0  0  0  0  0  0  0  0
  1  2  1  0
  2  3  1  0
  3  4  2  0
  4  5  1  0
  3  6  1  0
  6  7  2  0
  7  8  1  0
  8  9  1  0
  9 10  3  0
  8  5  2  0
M  END
$$$$
