
     RDKit          3D

 10 10  0  0  0  0  0  0  0  0999 V2000
   11.8655   16.5085   57.9602 C   0  0  0  0  0  0  0  0  0  0  0  0
   12.1359   17.7635   57.3693 O   0  0  0  0  0  0  0  0  0  0  0  0
   12.3643   18.8459   58.2114 C   0  0  0  0  0  0  0  0  0  0  0  0
   12.8486   20.0426   57.7250 C   0  0  0  0  0  0  0  0  0  0  0  0
   13.0806   21.1273   58.5493 C   0  0  0  0  0  0  0  0  0  0  0  0
   12.1218   18.7863   59.5710 C   0  0  0  0  0  0  0  0  0  0  0  0
   12.3535   19.8699   60.3949 C   0  0  0  0  0  0  0  0  0  0  0  0
   12.8388   21.0694   59.9083 C   0  0  0  0  0  0  0  0  0  0  0  0
   13.0733   22.1852   60.7819 C   0  0  0  0  0  0  0  0  0  0  0  0
   13.2506   23.0967   61.4750 N   0  0  0  0  0  0  0  0  0  0  0  0
  1  2  1  0
  2  3  1  0
  3  4  2  0
  4  5  1  0
  3  6  1  0
  6  7  2  0
  7  8  1  0
  8  9  1  0
  9 10  3  0
  8  5  2  0
M  END
$$$$
