
     RDKit          3D

 10 10  0  0  0  0  0  0  0  0999 V2000
    9.5715   18.2874   61.4846 C   0  0  0  0  0  0  0  0  0  0  0  0
   10.0028   18.2187   60.1406 O   0  0  0  0  0  0  0  0  0  0  0  0
   10.9373   19.1520   59.7064 C   0  0  0  0  0  0  0  0  0  0  0  0
   11.4676   20.0896   60.5683 C   0  0  0  0  0  0  0  0  0  0  0  0
   12.3970   21.0235   60.1519 C   0  0  0  0  0  0  0  0  0  0  0  0
   11.3847   19.1941   58.3991 C   0  0  0  0  0  0  0  0  0  0  0  0
   12.3135   20.1272   57.9826 C   0  0  0  0  0  0  0  0  0  0  0  0
   12.8453   21.0670   58.8457 C   0  0  0  0  0  0  0  0  0  0  0  0
   13.8106   22.0295   58.3929 C   0  0  0  0  0  0  0  0  0  0  0  0
   14.5835   22.8184   58.0424 N   0  0  0  0  0  0  0  0  0  0  0  0
  1  2  1  0
  2  3  1  0
  3  4  2  0
  4  5  1  0
  3  6  1  0
  6  7  2  0
  7  8  1  0
  8  9  1  0
  9 10  3  0
  8  5  2  0
M  END
$$$$
