
     RDKit          3D

 10 10  0  0  0  0  0  0  0  0999 V2000
   11.0645   17.0842   57.9076 C   0  0  0  0  0  0  0  0  0  0  0  0
   11.7136   18.1482   57.2413 O   0  0  0  0  0  0  0  0  0  0  0  0
   12.1427   19.2299   58.0020 C   0  0  0  0  0  0  0  0  0  0  0  0
   11.9719   19.2561   59.3707 C   0  0  0  0  0  0  0  0  0  0  0  0
   12.3930   20.3238   60.1404 C   0  0  0  0  0  0  0  0  0  0  0  0
   12.7591   20.3305   57.4367 C   0  0  0  0  0  0  0  0  0  0  0  0
   13.1800   21.3976   58.2054 C   0  0  0  0  0  0  0  0  0  0  0  0
   13.0092   21.4246   59.5770 C   0  0  0  0  0  0  0  0  0  0  0  0
   13.4541   22.5443   60.3592 C   0  0  0  0  0  0  0  0  0  0  0  0
   13.8313   23.4456   60.9820 N   0  0  0  0  0  0  0  0  0  0  0  0
  1  2  1  0
  2  3  1  0
  3  4  2  0
  4  5  1  0
  3  6  1  0
  6  7  2  0
  7  8  1  0
  8  9  1  0
  9 10  3  0
  8  5  2  0
M  END
$$$$
