
     RDKit          3D

 10 10  0  0  0  0  0  0  0  0999 V2000
   11.1937   16.8912   57.7421 C   0  0  0  0  0  0  0  0  0  0  0  0
   11.7708   18.0183   57.1145 O   0  0  0  0  0  0  0  0  0  0  0  0
   12.1713   19.0795   57.9185 C   0  0  0  0  0  0  0  0  0  0  0  0
   12.6696   20.2442   57.3723 C   0  0  0  0  0  0  0  0  0  0  0  0
   13.0717   21.3074   58.1581 C   0  0  0  0  0  0  0  0  0  0  0  0
   12.0942   19.0295   59.2978 C   0  0  0  0  0  0  0  0  0  0  0  0
   12.4959   20.0917   60.0833 C   0  0  0  0  0  0  0  0  0  0  0  0
   12.9953   21.2591   59.5367 C   0  0  0  0  0  0  0  0  0  0  0  0
   13.4080   22.3531   60.3711 C   0  0  0  0  0  0  0  0  0  0  0  0
   13.7438   23.2227   61.0594 N   0  0  0  0  0  0  0  0  0  0  0  0
  1  2  1  0
  2  3  1  0
  3  4  2  0
  4  5  1  0
  3  6  1  0
  6  7  2  0
  7  8  1  0
  8  9  1  0
  9 10  3  0
  8  5  2  0
M  END
$$$$
