
     RDKit          3D

 10 10  0  0  0  0  0  0  0  0999 V2000
    9.6013   17.2746   58.4362 C   0  0  0  0  0  0  0  0  0  0  0  0
   10.6395   17.6612   57.5587 O   0  0  0  0  0  0  0  0  0  0  0  0
   11.4040   18.7709   57.9007 C   0  0  0  0  0  0  0  0  0  0  0  0
   12.3039   19.3224   57.0124 C   0  0  0  0  0  0  0  0  0  0  0  0
   13.0708   20.4251   57.3376 C   0  0  0  0  0  0  0  0  0  0  0  0
   11.3078   19.3795   59.1381 C   0  0  0  0  0  0  0  0  0  0  0  0
   12.0739   20.4813   59.4634 C   0  0  0  0  0  0  0  0  0  0  0  0
   12.9759   21.0347   58.5738 C   0  0  0  0  0  0  0  0  0  0  0  0
   13.7639   22.1812   58.9312 C   0  0  0  0  0  0  0  0  0  0  0  0
   14.4115   23.0942   59.2306 N   0  0  0  0  0  0  0  0  0  0  0  0
  1  2  1  0
  2  3  1  0
  3  4  2  0
  4  5  1  0
  3  6  1  0
  6  7  2  0
  7  8  1  0
  8  9  1  0
  9 10  3  0
  8  5  2  0
M  END
$$$$
