
     RDKit          3D

 10 10  0  0  0  0  0  0  0  0999 V2000
    9.7698   17.9448   61.5148 C   0  0  0  0  0  0  0  0  0  0  0  0
   10.2478   17.6928   60.2090 O   0  0  0  0  0  0  0  0  0  0  0  0
   11.0921   18.6335   59.6300 C   0  0  0  0  0  0  0  0  0  0  0  0
   11.5632   18.4775   58.3428 C   0  0  0  0  0  0  0  0  0  0  0  0
   12.4028   19.4036   57.7537 C   0  0  0  0  0  0  0  0  0  0  0  0
   11.5040   19.7680   60.3038 C   0  0  0  0  0  0  0  0  0  0  0  0
   12.3430   20.6936   59.7154 C   0  0  0  0  0  0  0  0  0  0  0  0
   12.8155   20.5381   58.4256 C   0  0  0  0  0  0  0  0  0  0  0  0
   13.6876   21.5125   57.8312 C   0  0  0  0  0  0  0  0  0  0  0  0
   14.3801   22.2978   57.3349 N   0  0  0  0  0  0  0  0  0  0  0  0
  1  2  1  0
  2  3  1  0
  3  4  2  0
  4  5  1  0
  3  6  1  0
  6  7  2  0
  7  8  1  0
  8  9  1  0
  9 10  3  0
  8  5  2  0
M  END
$$$$
