
     RDKit          3D

 10 10  0  0  0  0  0  0  0  0999 V2000
   11.4970   16.8351   56.8076 C   0  0  0  0  0  0  0  0  0  0  0  0
   11.2066   17.3238   58.1015 O   0  0  0  0  0  0  0  0  0  0  0  0
   11.7771   18.5318   58.4863 C   0  0  0  0  0  0  0  0  0  0  0  0
   11.6378   19.0128   59.7718 C   0  0  0  0  0  0  0  0  0  0  0  0
   12.1989   20.2115   60.1694 C   0  0  0  0  0  0  0  0  0  0  0  0
   12.5094   19.3129   57.6121 C   0  0  0  0  0  0  0  0  0  0  0  0
   13.0702   20.5108   58.0090 C   0  0  0  0  0  0  0  0  0  0  0  0
   12.9311   20.9934   59.2969 C   0  0  0  0  0  0  0  0  0  0  0  0
   13.5222   22.2421   59.6903 C   0  0  0  0  0  0  0  0  0  0  0  0
   13.9904   23.2582   59.9917 N   0  0  0  0  0  0  0  0  0  0  0  0
  1  2  1  0
  2  3  1  0
  3  4  2  0
  4  5  1  0
  3  6  1  0
  6  7  2  0
  7  8  1  0
  8  9  1  0
  9 10  3  0
  8  5  2  0
M  END
$$$$
