
     RDKit          3D

 10 10  0  0  0  0  0  0  0  0999 V2000
   11.6982   16.3689   57.8441 C   0  0  0  0  0  0  0  0  0  0  0  0
   12.1235   17.5823   57.2577 O   0  0  0  0  0  0  0  0  0  0  0  0
   12.3570   18.6661   58.0966 C   0  0  0  0  0  0  0  0  0  0  0  0
   12.7828   19.8798   57.5977 C   0  0  0  0  0  0  0  0  0  0  0  0
   13.0191   20.9661   58.4186 C   0  0  0  0  0  0  0  0  0  0  0  0
   12.1777   18.5912   59.4652 C   0  0  0  0  0  0  0  0  0  0  0  0
   12.4137   19.6764   60.2857 C   0  0  0  0  0  0  0  0  0  0  0  0
   12.8405   20.8929   59.7866 C   0  0  0  0  0  0  0  0  0  0  0  0
   13.0805   22.0101   60.6569 C   0  0  0  0  0  0  0  0  0  0  0  0
   13.2919   22.9144   61.3499 N   0  0  0  0  0  0  0  0  0  0  0  0
  1  2  1  0
  2  3  1  0
  3  4  2  0
  4  5  1  0
  3  6  1  0
  6  7  2  0
  7  8  1  0
  8  9  1  0
  9 10  3  0
  8  5  2  0
M  END
$$$$
