
     RDKit          3D

 10 10  0  0  0  0  0  0  0  0999 V2000
   11.0601   16.6914   56.6783 C   0  0  0  0  0  0  0  0  0  0  0  0
   10.8838   17.2400   57.9687 O   0  0  0  0  0  0  0  0  0  0  0  0
   11.5177   18.4428   58.2589 C   0  0  0  0  0  0  0  0  0  0  0  0
   11.3741   19.0499   59.4894 C   0  0  0  0  0  0  0  0  0  0  0  0
   11.9976   20.2452   59.7929 C   0  0  0  0  0  0  0  0  0  0  0  0
   12.3205   19.0934   57.3407 C   0  0  0  0  0  0  0  0  0  0  0  0
   12.9437   20.2878   57.6436 C   0  0  0  0  0  0  0  0  0  0  0  0
   12.8003   20.8968   58.8764 C   0  0  0  0  0  0  0  0  0  0  0  0
   13.4571   22.1396   59.1721 C   0  0  0  0  0  0  0  0  0  0  0  0
   13.9727   23.1461   59.4244 N   0  0  0  0  0  0  0  0  0  0  0  0
  1  2  1  0
  2  3  1  0
  3  4  2  0
  4  5  1  0
  3  6  1  0
  6  7  2  0
  7  8  1  0
  8  9  1  0
  9 10  3  0
  8  5  2  0
M  END
$$$$
