
     RDKit          3D

 10 10  0  0  0  0  0  0  0  0999 V2000
   11.6598   16.6963   56.6222 C   0  0  0  0  0  0  0  0  0  0  0  0
   11.2954   17.1828   57.8981 O   0  0  0  0  0  0  0  0  0  0  0  0
   11.8370   18.3938   58.3141 C   0  0  0  0  0  0  0  0  0  0  0  0
   11.5514   18.9168   59.5583 C   0  0  0  0  0  0  0  0  0  0  0  0
   12.0818   20.1190   59.9861 C   0  0  0  0  0  0  0  0  0  0  0  0
   12.6843   19.1364   57.5132 C   0  0  0  0  0  0  0  0  0  0  0  0
   13.2145   20.3378   57.9403 C   0  0  0  0  0  0  0  0  0  0  0  0
   12.9288   20.8625   59.1870 C   0  0  0  0  0  0  0  0  0  0  0  0
   13.4905   22.1141   59.6128 C   0  0  0  0  0  0  0  0  0  0  0  0
   13.9250   23.1316   59.9569 N   0  0  0  0  0  0  0  0  0  0  0  0
  1  2  1  0
  2  3  1  0
  3  4  2  0
  4  5  1  0
  3  6  1  0
  6  7  2  0
  7  8  1  0
  8  9  1  0
  9 10  3  0
  8  5  2  0
M  END
$$$$
