
     RDKit          3D

 10 10  0  0  0  0  0  0  0  0999 V2000
   11.1737   16.9526   57.8165 C   0  0  0  0  0  0  0  0  0  0  0  0
   11.8989   18.0094   57.2212 O   0  0  0  0  0  0  0  0  0  0  0  0
   12.2568   19.0880   58.0220 C   0  0  0  0  0  0  0  0  0  0  0  0
   12.8637   20.2063   57.4888 C   0  0  0  0  0  0  0  0  0  0  0  0
   13.2253   21.2861   58.2717 C   0  0  0  0  0  0  0  0  0  0  0  0
   12.0275   19.1022   59.3852 C   0  0  0  0  0  0  0  0  0  0  0  0
   12.3887   20.1810   60.1678 C   0  0  0  0  0  0  0  0  0  0  0  0
   12.9969   21.3020   59.6342 C   0  0  0  0  0  0  0  0  0  0  0  0
   13.3651   22.4141   60.4653 C   0  0  0  0  0  0  0  0  0  0  0  0
   13.6666   23.2984   61.1507 N   0  0  0  0  0  0  0  0  0  0  0  0
  1  2  1  0
  2  3  1  0
  3  4  2  0
  4  5  1  0
  3  6  1  0
  6  7  2  0
  7  8  1  0
  8  9  1  0
  9 10  3  0
  8  5  2  0
M  END
$$$$
