
     RDKit          3D

 10 10  0  0  0  0  0  0  0  0999 V2000
   11.3925   16.6898   57.7644 C   0  0  0  0  0  0  0  0  0  0  0  0
   11.9581   17.8340   57.1576 O   0  0  0  0  0  0  0  0  0  0  0  0
   12.2966   18.9064   57.9750 C   0  0  0  0  0  0  0  0  0  0  0  0
   12.1578   18.8345   59.3457 C   0  0  0  0  0  0  0  0  0  0  0  0
   12.4899   19.8918   60.1713 C   0  0  0  0  0  0  0  0  0  0  0  0
   12.7870   20.0947   57.4668 C   0  0  0  0  0  0  0  0  0  0  0  0
   13.1190   21.1514   58.2915 C   0  0  0  0  0  0  0  0  0  0  0  0
   12.9801   21.0801   59.6651 C   0  0  0  0  0  0  0  0  0  0  0  0
   13.3311   22.1906   60.5059 C   0  0  0  0  0  0  0  0  0  0  0  0
   13.6143   23.0984   61.1680 N   0  0  0  0  0  0  0  0  0  0  0  0
  1  2  1  0
  2  3  1  0
  3  4  2  0
  4  5  1  0
  3  6  1  0
  6  7  2  0
  7  8  1  0
  8  9  1  0
  9 10  3  0
  8  5  2  0
M  END
$$$$
