
     RDKit          3D

 10 10  0  0  0  0  0  0  0  0999 V2000
   11.6400   16.6513   56.7122 C   0  0  0  0  0  0  0  0  0  0  0  0
   11.3993   17.0484   58.0470 O   0  0  0  0  0  0  0  0  0  0  0  0
   11.8967   18.2785   58.4620 C   0  0  0  0  0  0  0  0  0  0  0  0
   11.6361   18.7676   59.7253 C   0  0  0  0  0  0  0  0  0  0  0  0
   12.1234   19.9882   60.1523 C   0  0  0  0  0  0  0  0  0  0  0  0
   12.6733   19.0746   57.6411 C   0  0  0  0  0  0  0  0  0  0  0  0
   13.1604   20.2944   58.0674 C   0  0  0  0  0  0  0  0  0  0  0  0
   12.8997   20.7852   59.3332 C   0  0  0  0  0  0  0  0  0  0  0  0
   13.4156   22.0567   59.7578 C   0  0  0  0  0  0  0  0  0  0  0  0
   13.8435   23.0830   60.0840 N   0  0  0  0  0  0  0  0  0  0  0  0
  1  2  1  0
  2  3  1  0
  3  4  2  0
  4  5  1  0
  3  6  1  0
  6  7  2  0
  7  8  1  0
  8  9  1  0
  9 10  3  0
  8  5  2  0
M  END
$$$$
