
     RDKit          3D

 10 10  0  0  0  0  0  0  0  0999 V2000
   10.0229   16.8992   57.2514 C   0  0  0  0  0  0  0  0  0  0  0  0
   10.2177   17.5620   58.4843 O   0  0  0  0  0  0  0  0  0  0  0  0
   11.0695   18.6605   58.5074 C   0  0  0  0  0  0  0  0  0  0  0  0
   11.2820   19.3783   59.6662 C   0  0  0  0  0  0  0  0  0  0  0  0
   12.1254   20.4723   59.7051 C   0  0  0  0  0  0  0  0  0  0  0  0
   11.7459   19.0928   57.3821 C   0  0  0  0  0  0  0  0  0  0  0  0
   12.5888   20.1859   57.4205 C   0  0  0  0  0  0  0  0  0  0  0  0
   12.8022   20.9056   58.5813 C   0  0  0  0  0  0  0  0  0  0  0  0
   13.6831   22.0401   58.6008 C   0  0  0  0  0  0  0  0  0  0  0  0
   14.3778   22.9672   58.6195 N   0  0  0  0  0  0  0  0  0  0  0  0
  1  2  1  0
  2  3  1  0
  3  4  2  0
  4  5  1  0
  3  6  1  0
  6  7  2  0
  7  8  1  0
  8  9  1  0
  9 10  3  0
  8  5  2  0
M  END
$$$$
